
---------- Begin Simulation Statistics ----------
simSeconds                                   0.000100                       # Number of seconds simulated (Second)
simTicks                                    100000800                       # Number of ticks simulated (Tick)
finalTick                                   100000800                       # Number of ticks from beginning of simulation (restored from checkpoints and never reset) (Tick)
simFreq                                  1000000000000                       # The number of ticks per simulated second ((Tick/Second))
hostSeconds                                      1.51                       # Real time elapsed on the host (Second)
hostTickRate                                 66109905                       # The number of ticks simulated per host second (ticks/s) ((Tick/Second))
hostMemory                                    3559660                       # Number of bytes of host memory used (Byte)
system.clk_domain.clock                           200                       # Clock period in ticks (Tick)
system.clk_domain.voltage_domain.voltage            1                       # Voltage in Volts (Volt)
system.far_mem_ctrl.avgPriority_writebacks::samples       167.00                       # Average QoS priority value for accepted requests (Count)
system.far_mem_ctrl.priorityMinLatency   0.000034327448                       # per QoS priority minimum request to response latency (Second)
system.far_mem_ctrl.priorityMaxLatency   0.000104349892                       # per QoS priority maximum request to response latency (Second)
system.far_mem_ctrl.numReadWriteTurnArounds            6                       # Number of turnarounds from READ to WRITE (Count)
system.far_mem_ctrl.numWriteReadTurnArounds            6                       # Number of turnarounds from WRITE to READ (Count)
system.far_mem_ctrl.numStayReadState              275                       # Number of times bus staying in READ state (Count)
system.far_mem_ctrl.numStayWriteState             103                       # Number of times bus staying in WRITE state (Count)
system.far_mem_ctrl.readReqs                        0                       # Number of read requests accepted (Count)
system.far_mem_ctrl.writeReqs                     167                       # Number of write requests accepted (Count)
system.far_mem_ctrl.readBursts                      0                       # Number of controller read bursts, including those serviced by the write queue (Count)
system.far_mem_ctrl.writeBursts                   167                       # Number of controller write bursts, including those merged in the write queue (Count)
system.far_mem_ctrl.servicedByWrQ                   0                       # Number of controller read bursts serviced by the write queue (Count)
system.far_mem_ctrl.mergedWrBursts                  0                       # Number of controller write bursts merged with an existing one (Count)
system.far_mem_ctrl.neitherReadNorWriteReqs            0                       # Number of requests that are neither read nor write (Count)
system.far_mem_ctrl.avgRdQLen                    0.00                       # Average read queue length when enqueuing ((Count/Tick))
system.far_mem_ctrl.avgWrQLen                   35.93                       # Average write queue length when enqueuing ((Count/Tick))
system.far_mem_ctrl.numRdRetry                      0                       # Number of times read queue was full causing retry (Count)
system.far_mem_ctrl.numWrRetry                      0                       # Number of times write queue was full causing retry (Count)
system.far_mem_ctrl.readPktSize::0                  0                       # Read request sizes (log2) (Count)
system.far_mem_ctrl.readPktSize::1                  0                       # Read request sizes (log2) (Count)
system.far_mem_ctrl.readPktSize::2                  0                       # Read request sizes (log2) (Count)
system.far_mem_ctrl.readPktSize::3                  0                       # Read request sizes (log2) (Count)
system.far_mem_ctrl.readPktSize::4                  0                       # Read request sizes (log2) (Count)
system.far_mem_ctrl.readPktSize::5                  0                       # Read request sizes (log2) (Count)
system.far_mem_ctrl.readPktSize::6                  0                       # Read request sizes (log2) (Count)
system.far_mem_ctrl.writePktSize::0                 0                       # Write request sizes (log2) (Count)
system.far_mem_ctrl.writePktSize::1                 0                       # Write request sizes (log2) (Count)
system.far_mem_ctrl.writePktSize::2                 0                       # Write request sizes (log2) (Count)
system.far_mem_ctrl.writePktSize::3                 0                       # Write request sizes (log2) (Count)
system.far_mem_ctrl.writePktSize::4                 0                       # Write request sizes (log2) (Count)
system.far_mem_ctrl.writePktSize::5                 0                       # Write request sizes (log2) (Count)
system.far_mem_ctrl.writePktSize::6               167                       # Write request sizes (log2) (Count)
system.far_mem_ctrl.rdQLenPdf::0                    0                       # What read queue length does an incoming req see (Count)
system.far_mem_ctrl.rdQLenPdf::1                    0                       # What read queue length does an incoming req see (Count)
system.far_mem_ctrl.rdQLenPdf::2                    0                       # What read queue length does an incoming req see (Count)
system.far_mem_ctrl.rdQLenPdf::3                    0                       # What read queue length does an incoming req see (Count)
system.far_mem_ctrl.rdQLenPdf::4                    0                       # What read queue length does an incoming req see (Count)
system.far_mem_ctrl.rdQLenPdf::5                    0                       # What read queue length does an incoming req see (Count)
system.far_mem_ctrl.rdQLenPdf::6                    0                       # What read queue length does an incoming req see (Count)
system.far_mem_ctrl.rdQLenPdf::7                    0                       # What read queue length does an incoming req see (Count)
system.far_mem_ctrl.rdQLenPdf::8                    0                       # What read queue length does an incoming req see (Count)
system.far_mem_ctrl.rdQLenPdf::9                    0                       # What read queue length does an incoming req see (Count)
system.far_mem_ctrl.rdQLenPdf::10                   0                       # What read queue length does an incoming req see (Count)
system.far_mem_ctrl.rdQLenPdf::11                   0                       # What read queue length does an incoming req see (Count)
system.far_mem_ctrl.rdQLenPdf::12                   0                       # What read queue length does an incoming req see (Count)
system.far_mem_ctrl.rdQLenPdf::13                   0                       # What read queue length does an incoming req see (Count)
system.far_mem_ctrl.rdQLenPdf::14                   0                       # What read queue length does an incoming req see (Count)
system.far_mem_ctrl.rdQLenPdf::15                   0                       # What read queue length does an incoming req see (Count)
system.far_mem_ctrl.rdQLenPdf::16                   0                       # What read queue length does an incoming req see (Count)
system.far_mem_ctrl.rdQLenPdf::17                   0                       # What read queue length does an incoming req see (Count)
system.far_mem_ctrl.rdQLenPdf::18                   0                       # What read queue length does an incoming req see (Count)
system.far_mem_ctrl.rdQLenPdf::19                   0                       # What read queue length does an incoming req see (Count)
system.far_mem_ctrl.rdQLenPdf::20                   0                       # What read queue length does an incoming req see (Count)
system.far_mem_ctrl.rdQLenPdf::21                   0                       # What read queue length does an incoming req see (Count)
system.far_mem_ctrl.rdQLenPdf::22                   0                       # What read queue length does an incoming req see (Count)
system.far_mem_ctrl.rdQLenPdf::23                   0                       # What read queue length does an incoming req see (Count)
system.far_mem_ctrl.rdQLenPdf::24                   0                       # What read queue length does an incoming req see (Count)
system.far_mem_ctrl.rdQLenPdf::25                   0                       # What read queue length does an incoming req see (Count)
system.far_mem_ctrl.rdQLenPdf::26                   0                       # What read queue length does an incoming req see (Count)
system.far_mem_ctrl.rdQLenPdf::27                   0                       # What read queue length does an incoming req see (Count)
system.far_mem_ctrl.rdQLenPdf::28                   0                       # What read queue length does an incoming req see (Count)
system.far_mem_ctrl.rdQLenPdf::29                   0                       # What read queue length does an incoming req see (Count)
system.far_mem_ctrl.rdQLenPdf::30                   0                       # What read queue length does an incoming req see (Count)
system.far_mem_ctrl.rdQLenPdf::31                   0                       # What read queue length does an incoming req see (Count)
system.far_mem_ctrl.rdQLenPdf::32                   0                       # What read queue length does an incoming req see (Count)
system.far_mem_ctrl.rdQLenPdf::33                   0                       # What read queue length does an incoming req see (Count)
system.far_mem_ctrl.rdQLenPdf::34                   0                       # What read queue length does an incoming req see (Count)
system.far_mem_ctrl.rdQLenPdf::35                   0                       # What read queue length does an incoming req see (Count)
system.far_mem_ctrl.rdQLenPdf::36                   0                       # What read queue length does an incoming req see (Count)
system.far_mem_ctrl.rdQLenPdf::37                   0                       # What read queue length does an incoming req see (Count)
system.far_mem_ctrl.rdQLenPdf::38                   0                       # What read queue length does an incoming req see (Count)
system.far_mem_ctrl.rdQLenPdf::39                   0                       # What read queue length does an incoming req see (Count)
system.far_mem_ctrl.rdQLenPdf::40                   0                       # What read queue length does an incoming req see (Count)
system.far_mem_ctrl.rdQLenPdf::41                   0                       # What read queue length does an incoming req see (Count)
system.far_mem_ctrl.rdQLenPdf::42                   0                       # What read queue length does an incoming req see (Count)
system.far_mem_ctrl.rdQLenPdf::43                   0                       # What read queue length does an incoming req see (Count)
system.far_mem_ctrl.rdQLenPdf::44                   0                       # What read queue length does an incoming req see (Count)
system.far_mem_ctrl.rdQLenPdf::45                   0                       # What read queue length does an incoming req see (Count)
system.far_mem_ctrl.rdQLenPdf::46                   0                       # What read queue length does an incoming req see (Count)
system.far_mem_ctrl.rdQLenPdf::47                   0                       # What read queue length does an incoming req see (Count)
system.far_mem_ctrl.rdQLenPdf::48                   0                       # What read queue length does an incoming req see (Count)
system.far_mem_ctrl.rdQLenPdf::49                   0                       # What read queue length does an incoming req see (Count)
system.far_mem_ctrl.rdQLenPdf::50                   0                       # What read queue length does an incoming req see (Count)
system.far_mem_ctrl.rdQLenPdf::51                   0                       # What read queue length does an incoming req see (Count)
system.far_mem_ctrl.rdQLenPdf::52                   0                       # What read queue length does an incoming req see (Count)
system.far_mem_ctrl.rdQLenPdf::53                   0                       # What read queue length does an incoming req see (Count)
system.far_mem_ctrl.rdQLenPdf::54                   0                       # What read queue length does an incoming req see (Count)
system.far_mem_ctrl.rdQLenPdf::55                   0                       # What read queue length does an incoming req see (Count)
system.far_mem_ctrl.rdQLenPdf::56                   0                       # What read queue length does an incoming req see (Count)
system.far_mem_ctrl.rdQLenPdf::57                   0                       # What read queue length does an incoming req see (Count)
system.far_mem_ctrl.rdQLenPdf::58                   0                       # What read queue length does an incoming req see (Count)
system.far_mem_ctrl.rdQLenPdf::59                   0                       # What read queue length does an incoming req see (Count)
system.far_mem_ctrl.rdQLenPdf::60                   0                       # What read queue length does an incoming req see (Count)
system.far_mem_ctrl.rdQLenPdf::61                   0                       # What read queue length does an incoming req see (Count)
system.far_mem_ctrl.rdQLenPdf::62                   0                       # What read queue length does an incoming req see (Count)
system.far_mem_ctrl.rdQLenPdf::63                   0                       # What read queue length does an incoming req see (Count)
system.far_mem_ctrl.rdQLenPdf::64                   0                       # What read queue length does an incoming req see (Count)
system.far_mem_ctrl.rdQLenPdf::65                   0                       # What read queue length does an incoming req see (Count)
system.far_mem_ctrl.rdQLenPdf::66                   0                       # What read queue length does an incoming req see (Count)
system.far_mem_ctrl.rdQLenPdf::67                   0                       # What read queue length does an incoming req see (Count)
system.far_mem_ctrl.rdQLenPdf::68                   0                       # What read queue length does an incoming req see (Count)
system.far_mem_ctrl.rdQLenPdf::69                   0                       # What read queue length does an incoming req see (Count)
system.far_mem_ctrl.rdQLenPdf::70                   0                       # What read queue length does an incoming req see (Count)
system.far_mem_ctrl.rdQLenPdf::71                   0                       # What read queue length does an incoming req see (Count)
system.far_mem_ctrl.rdQLenPdf::72                   0                       # What read queue length does an incoming req see (Count)
system.far_mem_ctrl.rdQLenPdf::73                   0                       # What read queue length does an incoming req see (Count)
system.far_mem_ctrl.rdQLenPdf::74                   0                       # What read queue length does an incoming req see (Count)
system.far_mem_ctrl.rdQLenPdf::75                   0                       # What read queue length does an incoming req see (Count)
system.far_mem_ctrl.rdQLenPdf::76                   0                       # What read queue length does an incoming req see (Count)
system.far_mem_ctrl.rdQLenPdf::77                   0                       # What read queue length does an incoming req see (Count)
system.far_mem_ctrl.rdQLenPdf::78                   0                       # What read queue length does an incoming req see (Count)
system.far_mem_ctrl.rdQLenPdf::79                   0                       # What read queue length does an incoming req see (Count)
system.far_mem_ctrl.rdQLenPdf::80                   0                       # What read queue length does an incoming req see (Count)
system.far_mem_ctrl.rdQLenPdf::81                   0                       # What read queue length does an incoming req see (Count)
system.far_mem_ctrl.rdQLenPdf::82                   0                       # What read queue length does an incoming req see (Count)
system.far_mem_ctrl.rdQLenPdf::83                   0                       # What read queue length does an incoming req see (Count)
system.far_mem_ctrl.rdQLenPdf::84                   0                       # What read queue length does an incoming req see (Count)
system.far_mem_ctrl.rdQLenPdf::85                   0                       # What read queue length does an incoming req see (Count)
system.far_mem_ctrl.rdQLenPdf::86                   0                       # What read queue length does an incoming req see (Count)
system.far_mem_ctrl.rdQLenPdf::87                   0                       # What read queue length does an incoming req see (Count)
system.far_mem_ctrl.rdQLenPdf::88                   0                       # What read queue length does an incoming req see (Count)
system.far_mem_ctrl.rdQLenPdf::89                   0                       # What read queue length does an incoming req see (Count)
system.far_mem_ctrl.rdQLenPdf::90                   0                       # What read queue length does an incoming req see (Count)
system.far_mem_ctrl.rdQLenPdf::91                   0                       # What read queue length does an incoming req see (Count)
system.far_mem_ctrl.rdQLenPdf::92                   0                       # What read queue length does an incoming req see (Count)
system.far_mem_ctrl.rdQLenPdf::93                   0                       # What read queue length does an incoming req see (Count)
system.far_mem_ctrl.rdQLenPdf::94                   0                       # What read queue length does an incoming req see (Count)
system.far_mem_ctrl.rdQLenPdf::95                   0                       # What read queue length does an incoming req see (Count)
system.far_mem_ctrl.rdQLenPdf::96                   0                       # What read queue length does an incoming req see (Count)
system.far_mem_ctrl.rdQLenPdf::97                   0                       # What read queue length does an incoming req see (Count)
system.far_mem_ctrl.rdQLenPdf::98                   0                       # What read queue length does an incoming req see (Count)
system.far_mem_ctrl.rdQLenPdf::99                   0                       # What read queue length does an incoming req see (Count)
system.far_mem_ctrl.rdQLenPdf::100                  0                       # What read queue length does an incoming req see (Count)
system.far_mem_ctrl.rdQLenPdf::101                  0                       # What read queue length does an incoming req see (Count)
system.far_mem_ctrl.rdQLenPdf::102                  0                       # What read queue length does an incoming req see (Count)
system.far_mem_ctrl.rdQLenPdf::103                  0                       # What read queue length does an incoming req see (Count)
system.far_mem_ctrl.rdQLenPdf::104                  0                       # What read queue length does an incoming req see (Count)
system.far_mem_ctrl.rdQLenPdf::105                  0                       # What read queue length does an incoming req see (Count)
system.far_mem_ctrl.rdQLenPdf::106                  0                       # What read queue length does an incoming req see (Count)
system.far_mem_ctrl.rdQLenPdf::107                  0                       # What read queue length does an incoming req see (Count)
system.far_mem_ctrl.rdQLenPdf::108                  0                       # What read queue length does an incoming req see (Count)
system.far_mem_ctrl.rdQLenPdf::109                  0                       # What read queue length does an incoming req see (Count)
system.far_mem_ctrl.rdQLenPdf::110                  0                       # What read queue length does an incoming req see (Count)
system.far_mem_ctrl.rdQLenPdf::111                  0                       # What read queue length does an incoming req see (Count)
system.far_mem_ctrl.rdQLenPdf::112                  0                       # What read queue length does an incoming req see (Count)
system.far_mem_ctrl.rdQLenPdf::113                  0                       # What read queue length does an incoming req see (Count)
system.far_mem_ctrl.rdQLenPdf::114                  0                       # What read queue length does an incoming req see (Count)
system.far_mem_ctrl.rdQLenPdf::115                  0                       # What read queue length does an incoming req see (Count)
system.far_mem_ctrl.rdQLenPdf::116                  0                       # What read queue length does an incoming req see (Count)
system.far_mem_ctrl.rdQLenPdf::117                  0                       # What read queue length does an incoming req see (Count)
system.far_mem_ctrl.rdQLenPdf::118                  0                       # What read queue length does an incoming req see (Count)
system.far_mem_ctrl.rdQLenPdf::119                  0                       # What read queue length does an incoming req see (Count)
system.far_mem_ctrl.rdQLenPdf::120                  0                       # What read queue length does an incoming req see (Count)
system.far_mem_ctrl.rdQLenPdf::121                  0                       # What read queue length does an incoming req see (Count)
system.far_mem_ctrl.rdQLenPdf::122                  0                       # What read queue length does an incoming req see (Count)
system.far_mem_ctrl.rdQLenPdf::123                  0                       # What read queue length does an incoming req see (Count)
system.far_mem_ctrl.rdQLenPdf::124                  0                       # What read queue length does an incoming req see (Count)
system.far_mem_ctrl.rdQLenPdf::125                  0                       # What read queue length does an incoming req see (Count)
system.far_mem_ctrl.rdQLenPdf::126                  0                       # What read queue length does an incoming req see (Count)
system.far_mem_ctrl.rdQLenPdf::127                  0                       # What read queue length does an incoming req see (Count)
system.far_mem_ctrl.wrQLenPdf::0                    1                       # What write queue length does an incoming req see (Count)
system.far_mem_ctrl.wrQLenPdf::1                    1                       # What write queue length does an incoming req see (Count)
system.far_mem_ctrl.wrQLenPdf::2                    1                       # What write queue length does an incoming req see (Count)
system.far_mem_ctrl.wrQLenPdf::3                    1                       # What write queue length does an incoming req see (Count)
system.far_mem_ctrl.wrQLenPdf::4                    1                       # What write queue length does an incoming req see (Count)
system.far_mem_ctrl.wrQLenPdf::5                    1                       # What write queue length does an incoming req see (Count)
system.far_mem_ctrl.wrQLenPdf::6                    1                       # What write queue length does an incoming req see (Count)
system.far_mem_ctrl.wrQLenPdf::7                    1                       # What write queue length does an incoming req see (Count)
system.far_mem_ctrl.wrQLenPdf::8                    1                       # What write queue length does an incoming req see (Count)
system.far_mem_ctrl.wrQLenPdf::9                    1                       # What write queue length does an incoming req see (Count)
system.far_mem_ctrl.wrQLenPdf::10                   1                       # What write queue length does an incoming req see (Count)
system.far_mem_ctrl.wrQLenPdf::11                   1                       # What write queue length does an incoming req see (Count)
system.far_mem_ctrl.wrQLenPdf::12                   1                       # What write queue length does an incoming req see (Count)
system.far_mem_ctrl.wrQLenPdf::13                   1                       # What write queue length does an incoming req see (Count)
system.far_mem_ctrl.wrQLenPdf::14                   1                       # What write queue length does an incoming req see (Count)
system.far_mem_ctrl.wrQLenPdf::15                   1                       # What write queue length does an incoming req see (Count)
system.far_mem_ctrl.wrQLenPdf::16                   1                       # What write queue length does an incoming req see (Count)
system.far_mem_ctrl.wrQLenPdf::17                   1                       # What write queue length does an incoming req see (Count)
system.far_mem_ctrl.wrQLenPdf::18                   1                       # What write queue length does an incoming req see (Count)
system.far_mem_ctrl.wrQLenPdf::19                   1                       # What write queue length does an incoming req see (Count)
system.far_mem_ctrl.wrQLenPdf::20                   1                       # What write queue length does an incoming req see (Count)
system.far_mem_ctrl.wrQLenPdf::21                   1                       # What write queue length does an incoming req see (Count)
system.far_mem_ctrl.wrQLenPdf::22                   1                       # What write queue length does an incoming req see (Count)
system.far_mem_ctrl.wrQLenPdf::23                   1                       # What write queue length does an incoming req see (Count)
system.far_mem_ctrl.wrQLenPdf::24                   1                       # What write queue length does an incoming req see (Count)
system.far_mem_ctrl.wrQLenPdf::25                   1                       # What write queue length does an incoming req see (Count)
system.far_mem_ctrl.wrQLenPdf::26                   1                       # What write queue length does an incoming req see (Count)
system.far_mem_ctrl.wrQLenPdf::27                   1                       # What write queue length does an incoming req see (Count)
system.far_mem_ctrl.wrQLenPdf::28                   1                       # What write queue length does an incoming req see (Count)
system.far_mem_ctrl.wrQLenPdf::29                   1                       # What write queue length does an incoming req see (Count)
system.far_mem_ctrl.wrQLenPdf::30                   1                       # What write queue length does an incoming req see (Count)
system.far_mem_ctrl.wrQLenPdf::31                   1                       # What write queue length does an incoming req see (Count)
system.far_mem_ctrl.wrQLenPdf::32                   1                       # What write queue length does an incoming req see (Count)
system.far_mem_ctrl.wrQLenPdf::33                   1                       # What write queue length does an incoming req see (Count)
system.far_mem_ctrl.wrQLenPdf::34                   1                       # What write queue length does an incoming req see (Count)
system.far_mem_ctrl.wrQLenPdf::35                   1                       # What write queue length does an incoming req see (Count)
system.far_mem_ctrl.wrQLenPdf::36                   1                       # What write queue length does an incoming req see (Count)
system.far_mem_ctrl.wrQLenPdf::37                   1                       # What write queue length does an incoming req see (Count)
system.far_mem_ctrl.wrQLenPdf::38                   1                       # What write queue length does an incoming req see (Count)
system.far_mem_ctrl.wrQLenPdf::39                   1                       # What write queue length does an incoming req see (Count)
system.far_mem_ctrl.wrQLenPdf::40                   1                       # What write queue length does an incoming req see (Count)
system.far_mem_ctrl.wrQLenPdf::41                   1                       # What write queue length does an incoming req see (Count)
system.far_mem_ctrl.wrQLenPdf::42                   1                       # What write queue length does an incoming req see (Count)
system.far_mem_ctrl.wrQLenPdf::43                   1                       # What write queue length does an incoming req see (Count)
system.far_mem_ctrl.wrQLenPdf::44                   1                       # What write queue length does an incoming req see (Count)
system.far_mem_ctrl.wrQLenPdf::45                   1                       # What write queue length does an incoming req see (Count)
system.far_mem_ctrl.wrQLenPdf::46                   1                       # What write queue length does an incoming req see (Count)
system.far_mem_ctrl.wrQLenPdf::47                   7                       # What write queue length does an incoming req see (Count)
system.far_mem_ctrl.wrQLenPdf::48                   7                       # What write queue length does an incoming req see (Count)
system.far_mem_ctrl.wrQLenPdf::49                   7                       # What write queue length does an incoming req see (Count)
system.far_mem_ctrl.wrQLenPdf::50                   7                       # What write queue length does an incoming req see (Count)
system.far_mem_ctrl.wrQLenPdf::51                   7                       # What write queue length does an incoming req see (Count)
system.far_mem_ctrl.wrQLenPdf::52                   7                       # What write queue length does an incoming req see (Count)
system.far_mem_ctrl.wrQLenPdf::53                   7                       # What write queue length does an incoming req see (Count)
system.far_mem_ctrl.wrQLenPdf::54                   7                       # What write queue length does an incoming req see (Count)
system.far_mem_ctrl.wrQLenPdf::55                   7                       # What write queue length does an incoming req see (Count)
system.far_mem_ctrl.wrQLenPdf::56                   7                       # What write queue length does an incoming req see (Count)
system.far_mem_ctrl.wrQLenPdf::57                   7                       # What write queue length does an incoming req see (Count)
system.far_mem_ctrl.wrQLenPdf::58                   6                       # What write queue length does an incoming req see (Count)
system.far_mem_ctrl.wrQLenPdf::59                   6                       # What write queue length does an incoming req see (Count)
system.far_mem_ctrl.wrQLenPdf::60                   6                       # What write queue length does an incoming req see (Count)
system.far_mem_ctrl.wrQLenPdf::61                   7                       # What write queue length does an incoming req see (Count)
system.far_mem_ctrl.wrQLenPdf::62                   6                       # What write queue length does an incoming req see (Count)
system.far_mem_ctrl.wrQLenPdf::63                   6                       # What write queue length does an incoming req see (Count)
system.far_mem_ctrl.wrQLenPdf::64                   6                       # What write queue length does an incoming req see (Count)
system.far_mem_ctrl.wrQLenPdf::65                   0                       # What write queue length does an incoming req see (Count)
system.far_mem_ctrl.wrQLenPdf::66                   0                       # What write queue length does an incoming req see (Count)
system.far_mem_ctrl.wrQLenPdf::67                   0                       # What write queue length does an incoming req see (Count)
system.far_mem_ctrl.wrQLenPdf::68                   0                       # What write queue length does an incoming req see (Count)
system.far_mem_ctrl.wrQLenPdf::69                   0                       # What write queue length does an incoming req see (Count)
system.far_mem_ctrl.wrQLenPdf::70                   0                       # What write queue length does an incoming req see (Count)
system.far_mem_ctrl.wrQLenPdf::71                   0                       # What write queue length does an incoming req see (Count)
system.far_mem_ctrl.wrQLenPdf::72                   0                       # What write queue length does an incoming req see (Count)
system.far_mem_ctrl.wrQLenPdf::73                   0                       # What write queue length does an incoming req see (Count)
system.far_mem_ctrl.wrQLenPdf::74                   0                       # What write queue length does an incoming req see (Count)
system.far_mem_ctrl.wrQLenPdf::75                   0                       # What write queue length does an incoming req see (Count)
system.far_mem_ctrl.wrQLenPdf::76                   0                       # What write queue length does an incoming req see (Count)
system.far_mem_ctrl.wrQLenPdf::77                   0                       # What write queue length does an incoming req see (Count)
system.far_mem_ctrl.wrQLenPdf::78                   0                       # What write queue length does an incoming req see (Count)
system.far_mem_ctrl.wrQLenPdf::79                   0                       # What write queue length does an incoming req see (Count)
system.far_mem_ctrl.wrQLenPdf::80                   0                       # What write queue length does an incoming req see (Count)
system.far_mem_ctrl.wrQLenPdf::81                   0                       # What write queue length does an incoming req see (Count)
system.far_mem_ctrl.wrQLenPdf::82                   0                       # What write queue length does an incoming req see (Count)
system.far_mem_ctrl.wrQLenPdf::83                   0                       # What write queue length does an incoming req see (Count)
system.far_mem_ctrl.wrQLenPdf::84                   0                       # What write queue length does an incoming req see (Count)
system.far_mem_ctrl.wrQLenPdf::85                   0                       # What write queue length does an incoming req see (Count)
system.far_mem_ctrl.wrQLenPdf::86                   0                       # What write queue length does an incoming req see (Count)
system.far_mem_ctrl.wrQLenPdf::87                   0                       # What write queue length does an incoming req see (Count)
system.far_mem_ctrl.wrQLenPdf::88                   0                       # What write queue length does an incoming req see (Count)
system.far_mem_ctrl.wrQLenPdf::89                   0                       # What write queue length does an incoming req see (Count)
system.far_mem_ctrl.wrQLenPdf::90                   0                       # What write queue length does an incoming req see (Count)
system.far_mem_ctrl.wrQLenPdf::91                   0                       # What write queue length does an incoming req see (Count)
system.far_mem_ctrl.wrQLenPdf::92                   0                       # What write queue length does an incoming req see (Count)
system.far_mem_ctrl.wrQLenPdf::93                   0                       # What write queue length does an incoming req see (Count)
system.far_mem_ctrl.wrQLenPdf::94                   0                       # What write queue length does an incoming req see (Count)
system.far_mem_ctrl.wrQLenPdf::95                   0                       # What write queue length does an incoming req see (Count)
system.far_mem_ctrl.wrQLenPdf::96                   0                       # What write queue length does an incoming req see (Count)
system.far_mem_ctrl.wrQLenPdf::97                   0                       # What write queue length does an incoming req see (Count)
system.far_mem_ctrl.wrQLenPdf::98                   0                       # What write queue length does an incoming req see (Count)
system.far_mem_ctrl.wrQLenPdf::99                   0                       # What write queue length does an incoming req see (Count)
system.far_mem_ctrl.wrQLenPdf::100                  0                       # What write queue length does an incoming req see (Count)
system.far_mem_ctrl.wrQLenPdf::101                  0                       # What write queue length does an incoming req see (Count)
system.far_mem_ctrl.wrQLenPdf::102                  0                       # What write queue length does an incoming req see (Count)
system.far_mem_ctrl.wrQLenPdf::103                  0                       # What write queue length does an incoming req see (Count)
system.far_mem_ctrl.wrQLenPdf::104                  0                       # What write queue length does an incoming req see (Count)
system.far_mem_ctrl.wrQLenPdf::105                  0                       # What write queue length does an incoming req see (Count)
system.far_mem_ctrl.wrQLenPdf::106                  0                       # What write queue length does an incoming req see (Count)
system.far_mem_ctrl.wrQLenPdf::107                  0                       # What write queue length does an incoming req see (Count)
system.far_mem_ctrl.wrQLenPdf::108                  0                       # What write queue length does an incoming req see (Count)
system.far_mem_ctrl.wrQLenPdf::109                  0                       # What write queue length does an incoming req see (Count)
system.far_mem_ctrl.wrQLenPdf::110                  0                       # What write queue length does an incoming req see (Count)
system.far_mem_ctrl.wrQLenPdf::111                  0                       # What write queue length does an incoming req see (Count)
system.far_mem_ctrl.wrQLenPdf::112                  0                       # What write queue length does an incoming req see (Count)
system.far_mem_ctrl.wrQLenPdf::113                  0                       # What write queue length does an incoming req see (Count)
system.far_mem_ctrl.wrQLenPdf::114                  0                       # What write queue length does an incoming req see (Count)
system.far_mem_ctrl.wrQLenPdf::115                  0                       # What write queue length does an incoming req see (Count)
system.far_mem_ctrl.wrQLenPdf::116                  0                       # What write queue length does an incoming req see (Count)
system.far_mem_ctrl.wrQLenPdf::117                  0                       # What write queue length does an incoming req see (Count)
system.far_mem_ctrl.wrQLenPdf::118                  0                       # What write queue length does an incoming req see (Count)
system.far_mem_ctrl.wrQLenPdf::119                  0                       # What write queue length does an incoming req see (Count)
system.far_mem_ctrl.wrQLenPdf::120                  0                       # What write queue length does an incoming req see (Count)
system.far_mem_ctrl.wrQLenPdf::121                  0                       # What write queue length does an incoming req see (Count)
system.far_mem_ctrl.wrQLenPdf::122                  0                       # What write queue length does an incoming req see (Count)
system.far_mem_ctrl.wrQLenPdf::123                  0                       # What write queue length does an incoming req see (Count)
system.far_mem_ctrl.wrQLenPdf::124                  0                       # What write queue length does an incoming req see (Count)
system.far_mem_ctrl.wrQLenPdf::125                  0                       # What write queue length does an incoming req see (Count)
system.far_mem_ctrl.wrQLenPdf::126                  0                       # What write queue length does an incoming req see (Count)
system.far_mem_ctrl.wrQLenPdf::127                  0                       # What write queue length does an incoming req see (Count)
system.far_mem_ctrl.rdPerTurnAround::samples            6                       # Reads before turning the bus around for writes (Count)
system.far_mem_ctrl.rdPerTurnAround::0              6    100.00%    100.00% # Reads before turning the bus around for writes (Count)
system.far_mem_ctrl.rdPerTurnAround::total            6                       # Reads before turning the bus around for writes (Count)
system.far_mem_ctrl.wrPerTurnAround::samples            6                       # Writes before turning the bus around for reads (Count)
system.far_mem_ctrl.wrPerTurnAround::mean    18.166667                       # Writes before turning the bus around for reads (Count)
system.far_mem_ctrl.wrPerTurnAround::gmean    18.162935                       # Writes before turning the bus around for reads (Count)
system.far_mem_ctrl.wrPerTurnAround::stdev     0.408248                       # Writes before turning the bus around for reads (Count)
system.far_mem_ctrl.wrPerTurnAround::18             5     83.33%     83.33% # Writes before turning the bus around for reads (Count)
system.far_mem_ctrl.wrPerTurnAround::19             1     16.67%    100.00% # Writes before turning the bus around for reads (Count)
system.far_mem_ctrl.wrPerTurnAround::total            6                       # Writes before turning the bus around for reads (Count)
system.far_mem_ctrl.bytesReadWrQ                    0                       # Total number of bytes read from write queue (Byte)
system.far_mem_ctrl.bytesReadSys                    0                       # Total read bytes from the system interface side (Byte)
system.far_mem_ctrl.bytesWrittenSys             10688                       # Total written bytes from the system interface side (Byte)
system.far_mem_ctrl.avgRdBWSys             0.00000000                       # Average system read bandwidth in Byte/s ((Byte/Second))
system.far_mem_ctrl.avgWrBWSys           106879144.96684025                       # Average system write bandwidth in Byte/s ((Byte/Second))
system.far_mem_ctrl.totGap                   94529600                       # Total gap between requests (Tick)
system.far_mem_ctrl.avgGap                  566045.51                       # Average gap between requests ((Tick/Count))
system.far_mem_ctrl.requestorWriteBytes::writebacks         6976                       # Per-requestor bytes write to memory (Byte)
system.far_mem_ctrl.requestorWriteRate::writebacks 69759441.924464598298                       # Per-requestor bytes write to memory rate ((Byte/Second))
system.far_mem_ctrl.requestorWriteAccesses::writebacks          167                       # Per-requestor write serviced memory accesses (Count)
system.far_mem_ctrl.requestorWriteTotalLat::writebacks   3036852980                       # Per-requestor write total memory access latency (Tick)
system.far_mem_ctrl.requestorWriteAvgLat::writebacks  18184748.38                       # Per-requestor write average memory access latency ((Tick/Count))
system.far_mem_ctrl.dram.bytesWritten::writebacks        10688                       # Number of bytes written to this memory (Byte)
system.far_mem_ctrl.dram.bytesWritten::total        10688                       # Number of bytes written to this memory (Byte)
system.far_mem_ctrl.dram.numWrites::writebacks          167                       # Number of write requests responded to by this memory (Count)
system.far_mem_ctrl.dram.numWrites::total          167                       # Number of write requests responded to by this memory (Count)
system.far_mem_ctrl.dram.bwWrite::writebacks    106879145                       # Write bandwidth from this memory ((Byte/Second))
system.far_mem_ctrl.dram.bwWrite::total     106879145                       # Write bandwidth from this memory ((Byte/Second))
system.far_mem_ctrl.dram.bwTotal::writebacks    106879145                       # Total bandwidth to/from this memory ((Byte/Second))
system.far_mem_ctrl.dram.bwTotal::total     106879145                       # Total bandwidth to/from this memory ((Byte/Second))
system.far_mem_ctrl.dram.readBursts                 0                       # Number of NVM read bursts (Count)
system.far_mem_ctrl.dram.writeBursts              109                       # Number of NVM write bursts (Count)
system.far_mem_ctrl.dram.perBankRdBursts::0            0                       # Per bank write bursts (Count)
system.far_mem_ctrl.dram.perBankRdBursts::1            0                       # Per bank write bursts (Count)
system.far_mem_ctrl.dram.perBankRdBursts::2            0                       # Per bank write bursts (Count)
system.far_mem_ctrl.dram.perBankRdBursts::3            0                       # Per bank write bursts (Count)
system.far_mem_ctrl.dram.perBankRdBursts::4            0                       # Per bank write bursts (Count)
system.far_mem_ctrl.dram.perBankRdBursts::5            0                       # Per bank write bursts (Count)
system.far_mem_ctrl.dram.perBankRdBursts::6            0                       # Per bank write bursts (Count)
system.far_mem_ctrl.dram.perBankRdBursts::7            0                       # Per bank write bursts (Count)
system.far_mem_ctrl.dram.perBankRdBursts::8            0                       # Per bank write bursts (Count)
system.far_mem_ctrl.dram.perBankRdBursts::9            0                       # Per bank write bursts (Count)
system.far_mem_ctrl.dram.perBankRdBursts::10            0                       # Per bank write bursts (Count)
system.far_mem_ctrl.dram.perBankRdBursts::11            0                       # Per bank write bursts (Count)
system.far_mem_ctrl.dram.perBankRdBursts::12            0                       # Per bank write bursts (Count)
system.far_mem_ctrl.dram.perBankRdBursts::13            0                       # Per bank write bursts (Count)
system.far_mem_ctrl.dram.perBankRdBursts::14            0                       # Per bank write bursts (Count)
system.far_mem_ctrl.dram.perBankRdBursts::15            0                       # Per bank write bursts (Count)
system.far_mem_ctrl.dram.perBankWrBursts::0            5                       # Per bank write bursts (Count)
system.far_mem_ctrl.dram.perBankWrBursts::1            5                       # Per bank write bursts (Count)
system.far_mem_ctrl.dram.perBankWrBursts::2            6                       # Per bank write bursts (Count)
system.far_mem_ctrl.dram.perBankWrBursts::3            4                       # Per bank write bursts (Count)
system.far_mem_ctrl.dram.perBankWrBursts::4           12                       # Per bank write bursts (Count)
system.far_mem_ctrl.dram.perBankWrBursts::5            7                       # Per bank write bursts (Count)
system.far_mem_ctrl.dram.perBankWrBursts::6            5                       # Per bank write bursts (Count)
system.far_mem_ctrl.dram.perBankWrBursts::7            4                       # Per bank write bursts (Count)
system.far_mem_ctrl.dram.perBankWrBursts::8            7                       # Per bank write bursts (Count)
system.far_mem_ctrl.dram.perBankWrBursts::9            6                       # Per bank write bursts (Count)
system.far_mem_ctrl.dram.perBankWrBursts::10            9                       # Per bank write bursts (Count)
system.far_mem_ctrl.dram.perBankWrBursts::11            6                       # Per bank write bursts (Count)
system.far_mem_ctrl.dram.perBankWrBursts::12            7                       # Per bank write bursts (Count)
system.far_mem_ctrl.dram.perBankWrBursts::13           11                       # Per bank write bursts (Count)
system.far_mem_ctrl.dram.perBankWrBursts::14            6                       # Per bank write bursts (Count)
system.far_mem_ctrl.dram.perBankWrBursts::15            9                       # Per bank write bursts (Count)
system.far_mem_ctrl.dram.totQLat                    0                       # Total ticks spent queuing (Tick)
system.far_mem_ctrl.dram.totBusLat                  0                       # Total ticks spent in databus transfers (Tick)
system.far_mem_ctrl.dram.totMemAccLat               0                       # Total ticks spent from burst creation until serviced by the NVM (Tick)
system.far_mem_ctrl.dram.avgQLat                  nan                       # Average queueing delay per NVM burst ((Tick/Count))
system.far_mem_ctrl.dram.avgBusLat                nan                       # Average bus latency per NVM burst ((Tick/Count))
system.far_mem_ctrl.dram.avgMemAccLat             nan                       # Average memory access latency per NVM burst ((Tick/Count))
system.far_mem_ctrl.dram.avgRdBW                 0.00                       # Average DRAM read bandwidth in MiBytes/s ((Byte/Second))
system.far_mem_ctrl.dram.avgWrBW                69.76                       # Average DRAM write bandwidth in MiBytes/s ((Byte/Second))
system.far_mem_ctrl.dram.peakBW              19207.00                       # Theoretical peak bandwidth in MiByte/s ((Byte/Second))
system.far_mem_ctrl.dram.busUtil                 0.36                       # NVM Data bus utilization in percentage (Ratio)
system.far_mem_ctrl.dram.busUtilRead             0.00                       # NVM Data bus read utilization in percentage (Ratio)
system.far_mem_ctrl.dram.busUtilWrite            0.36                       # NVM Data bus write utilization in percentage (Ratio)
system.far_mem_ctrl.dram.pendingWrites::samples          109                       # Number of outstanding writes to NVM (Count)
system.far_mem_ctrl.dram.pendingWrites::mean     9.587156                       # Number of outstanding writes to NVM (Count)
system.far_mem_ctrl.dram.pendingWrites::gmean     7.617378                       # Number of outstanding writes to NVM (Count)
system.far_mem_ctrl.dram.pendingWrites::stdev     5.267319                       # Number of outstanding writes to NVM (Count)
system.far_mem_ctrl.dram.pendingWrites::1            6      5.50%      5.50% # Number of outstanding writes to NVM (Count)
system.far_mem_ctrl.dram.pendingWrites::2            6      5.50%     11.01% # Number of outstanding writes to NVM (Count)
system.far_mem_ctrl.dram.pendingWrites::3            6      5.50%     16.51% # Number of outstanding writes to NVM (Count)
system.far_mem_ctrl.dram.pendingWrites::4            6      5.50%     22.02% # Number of outstanding writes to NVM (Count)
system.far_mem_ctrl.dram.pendingWrites::5            6      5.50%     27.52% # Number of outstanding writes to NVM (Count)
system.far_mem_ctrl.dram.pendingWrites::6            6      5.50%     33.03% # Number of outstanding writes to NVM (Count)
system.far_mem_ctrl.dram.pendingWrites::7            6      5.50%     38.53% # Number of outstanding writes to NVM (Count)
system.far_mem_ctrl.dram.pendingWrites::8            6      5.50%     44.04% # Number of outstanding writes to NVM (Count)
system.far_mem_ctrl.dram.pendingWrites::9            6      5.50%     49.54% # Number of outstanding writes to NVM (Count)
system.far_mem_ctrl.dram.pendingWrites::10            6      5.50%     55.05% # Number of outstanding writes to NVM (Count)
system.far_mem_ctrl.dram.pendingWrites::11            6      5.50%     60.55% # Number of outstanding writes to NVM (Count)
system.far_mem_ctrl.dram.pendingWrites::12            6      5.50%     66.06% # Number of outstanding writes to NVM (Count)
system.far_mem_ctrl.dram.pendingWrites::13            6      5.50%     71.56% # Number of outstanding writes to NVM (Count)
system.far_mem_ctrl.dram.pendingWrites::14            6      5.50%     77.06% # Number of outstanding writes to NVM (Count)
system.far_mem_ctrl.dram.pendingWrites::15            6      5.50%     82.57% # Number of outstanding writes to NVM (Count)
system.far_mem_ctrl.dram.pendingWrites::16            6      5.50%     88.07% # Number of outstanding writes to NVM (Count)
system.far_mem_ctrl.dram.pendingWrites::17            6      5.50%     93.58% # Number of outstanding writes to NVM (Count)
system.far_mem_ctrl.dram.pendingWrites::18            6      5.50%     99.08% # Number of outstanding writes to NVM (Count)
system.far_mem_ctrl.dram.pendingWrites::19            1      0.92%    100.00% # Number of outstanding writes to NVM (Count)
system.far_mem_ctrl.dram.pendingWrites::total          109                       # Number of outstanding writes to NVM (Count)
system.far_mem_ctrl.dram.bytesPerBank::samples          109                       # Bytes read within a bank before loading new bank (Byte)
system.far_mem_ctrl.dram.bytesPerBank::mean           64                       # Bytes read within a bank before loading new bank (Byte)
system.far_mem_ctrl.dram.bytesPerBank::gmean    64.000000                       # Bytes read within a bank before loading new bank (Byte)
system.far_mem_ctrl.dram.bytesPerBank::64          109    100.00%    100.00% # Bytes read within a bank before loading new bank (Byte)
system.far_mem_ctrl.dram.bytesPerBank::total          109                       # Bytes read within a bank before loading new bank (Byte)
system.far_mem_ctrl.dram.power_state.pwrStateResidencyTicks::UNDEFINED    100000800                       # Cumulative time (in ticks) in various power states (Tick)
system.far_mem_ctrl.power_state.pwrStateResidencyTicks::UNDEFINED    100000800                       # Cumulative time (in ticks) in various power states (Tick)
system.generators0.numSuppressed                    0                       # Number of suppressed packets to non-memory space (Count)
system.generators0.numPackets                     954                       # Number of packets generated (Count)
system.generators0.numRetries                    1615                       # Number of retries (Count)
system.generators0.retryTicks                99939640                       # Time spent waiting due to back-pressure (Tick)
system.generators0.bytesRead                        0                       # Number of bytes read (Byte)
system.generators0.bytesWritten                 60992                       # Number of bytes written (Byte)
system.generators0.totalReadLatency                 0                       # Total latency of read requests (Tick)
system.generators0.totalWriteLatency        119571440                       # Total latency of write requests (Tick)
system.generators0.totalReads                       0                       # Total num of reads (Count)
system.generators0.totalWrites                    953                       # Total num of writes (Count)
system.generators0.avgReadLatency                 nan                       # Avg latency of read requests ((Tick/Count))
system.generators0.avgWriteLatency       125468.457503                       # Avg latency of write requests ((Tick/Count))
system.generators0.readBW                           0                       # Read bandwidth ((Byte/Second))
system.generators0.writeBW               609915120.679034                       # Write bandwidth ((Byte/Second))
system.generators0.power_state.pwrStateResidencyTicks::UNDEFINED    100000800                       # Cumulative time (in ticks) in various power states (Tick)
system.generators1.numSuppressed                    0                       # Number of suppressed packets to non-memory space (Count)
system.generators1.numPackets                     954                       # Number of packets generated (Count)
system.generators1.numRetries                    1604                       # Number of retries (Count)
system.generators1.retryTicks                99938440                       # Time spent waiting due to back-pressure (Tick)
system.generators1.bytesRead                        0                       # Number of bytes read (Byte)
system.generators1.bytesWritten                 60992                       # Number of bytes written (Byte)
system.generators1.totalReadLatency                 0                       # Total latency of read requests (Tick)
system.generators1.totalWriteLatency        119570240                       # Total latency of write requests (Tick)
system.generators1.totalReads                       0                       # Total num of reads (Count)
system.generators1.totalWrites                    953                       # Total num of writes (Count)
system.generators1.avgReadLatency                 nan                       # Avg latency of read requests ((Tick/Count))
system.generators1.avgWriteLatency       125467.198321                       # Avg latency of write requests ((Tick/Count))
system.generators1.readBW                           0                       # Read bandwidth ((Byte/Second))
system.generators1.writeBW               609915120.679034                       # Write bandwidth ((Byte/Second))
system.generators1.power_state.pwrStateResidencyTicks::UNDEFINED    100000800                       # Cumulative time (in ticks) in various power states (Tick)
system.generators10.numSuppressed                   0                       # Number of suppressed packets to non-memory space (Count)
system.generators10.numPackets                    954                       # Number of packets generated (Count)
system.generators10.numRetries                   1563                       # Number of retries (Count)
system.generators10.retryTicks               99925840                       # Time spent waiting due to back-pressure (Tick)
system.generators10.bytesRead                       0                       # Number of bytes read (Byte)
system.generators10.bytesWritten                60992                       # Number of bytes written (Byte)
system.generators10.totalReadLatency                0                       # Total latency of read requests (Tick)
system.generators10.totalWriteLatency       119557640                       # Total latency of write requests (Tick)
system.generators10.totalReads                      0                       # Total num of reads (Count)
system.generators10.totalWrites                   953                       # Total num of writes (Count)
system.generators10.avgReadLatency                nan                       # Avg latency of read requests ((Tick/Count))
system.generators10.avgWriteLatency      125453.976915                       # Avg latency of write requests ((Tick/Count))
system.generators10.readBW                          0                       # Read bandwidth ((Byte/Second))
system.generators10.writeBW              609915120.679034                       # Write bandwidth ((Byte/Second))
system.generators10.power_state.pwrStateResidencyTicks::UNDEFINED    100000800                       # Cumulative time (in ticks) in various power states (Tick)
system.generators11.numSuppressed                   0                       # Number of suppressed packets to non-memory space (Count)
system.generators11.numPackets                    954                       # Number of packets generated (Count)
system.generators11.numRetries                   1585                       # Number of retries (Count)
system.generators11.retryTicks               99924840                       # Time spent waiting due to back-pressure (Tick)
system.generators11.bytesRead                       0                       # Number of bytes read (Byte)
system.generators11.bytesWritten                60992                       # Number of bytes written (Byte)
system.generators11.totalReadLatency                0                       # Total latency of read requests (Tick)
system.generators11.totalWriteLatency       119556640                       # Total latency of write requests (Tick)
system.generators11.totalReads                      0                       # Total num of reads (Count)
system.generators11.totalWrites                   953                       # Total num of writes (Count)
system.generators11.avgReadLatency                nan                       # Avg latency of read requests ((Tick/Count))
system.generators11.avgWriteLatency      125452.927597                       # Avg latency of write requests ((Tick/Count))
system.generators11.readBW                          0                       # Read bandwidth ((Byte/Second))
system.generators11.writeBW              609915120.679034                       # Write bandwidth ((Byte/Second))
system.generators11.power_state.pwrStateResidencyTicks::UNDEFINED    100000800                       # Cumulative time (in ticks) in various power states (Tick)
system.generators12.numSuppressed                   0                       # Number of suppressed packets to non-memory space (Count)
system.generators12.numPackets                    954                       # Number of packets generated (Count)
system.generators12.numRetries                   1604                       # Number of retries (Count)
system.generators12.retryTicks               99924040                       # Time spent waiting due to back-pressure (Tick)
system.generators12.bytesRead                       0                       # Number of bytes read (Byte)
system.generators12.bytesWritten                60992                       # Number of bytes written (Byte)
system.generators12.totalReadLatency                0                       # Total latency of read requests (Tick)
system.generators12.totalWriteLatency       119555840                       # Total latency of write requests (Tick)
system.generators12.totalReads                      0                       # Total num of reads (Count)
system.generators12.totalWrites                   953                       # Total num of writes (Count)
system.generators12.avgReadLatency                nan                       # Avg latency of read requests ((Tick/Count))
system.generators12.avgWriteLatency      125452.088143                       # Avg latency of write requests ((Tick/Count))
system.generators12.readBW                          0                       # Read bandwidth ((Byte/Second))
system.generators12.writeBW              609915120.679034                       # Write bandwidth ((Byte/Second))
system.generators12.power_state.pwrStateResidencyTicks::UNDEFINED    100000800                       # Cumulative time (in ticks) in various power states (Tick)
system.generators13.numSuppressed                   0                       # Number of suppressed packets to non-memory space (Count)
system.generators13.numPackets                    954                       # Number of packets generated (Count)
system.generators13.numRetries                   1602                       # Number of retries (Count)
system.generators13.retryTicks               99922840                       # Time spent waiting due to back-pressure (Tick)
system.generators13.bytesRead                       0                       # Number of bytes read (Byte)
system.generators13.bytesWritten                60992                       # Number of bytes written (Byte)
system.generators13.totalReadLatency                0                       # Total latency of read requests (Tick)
system.generators13.totalWriteLatency       119554640                       # Total latency of write requests (Tick)
system.generators13.totalReads                      0                       # Total num of reads (Count)
system.generators13.totalWrites                   953                       # Total num of writes (Count)
system.generators13.avgReadLatency                nan                       # Avg latency of read requests ((Tick/Count))
system.generators13.avgWriteLatency      125450.828961                       # Avg latency of write requests ((Tick/Count))
system.generators13.readBW                          0                       # Read bandwidth ((Byte/Second))
system.generators13.writeBW              609915120.679034                       # Write bandwidth ((Byte/Second))
system.generators13.power_state.pwrStateResidencyTicks::UNDEFINED    100000800                       # Cumulative time (in ticks) in various power states (Tick)
system.generators14.numSuppressed                   0                       # Number of suppressed packets to non-memory space (Count)
system.generators14.numPackets                    954                       # Number of packets generated (Count)
system.generators14.numRetries                   1592                       # Number of retries (Count)
system.generators14.retryTicks               99921640                       # Time spent waiting due to back-pressure (Tick)
system.generators14.bytesRead                       0                       # Number of bytes read (Byte)
system.generators14.bytesWritten                60992                       # Number of bytes written (Byte)
system.generators14.totalReadLatency                0                       # Total latency of read requests (Tick)
system.generators14.totalWriteLatency       120087040                       # Total latency of write requests (Tick)
system.generators14.totalReads                      0                       # Total num of reads (Count)
system.generators14.totalWrites                   953                       # Total num of writes (Count)
system.generators14.avgReadLatency                nan                       # Avg latency of read requests ((Tick/Count))
system.generators14.avgWriteLatency      126009.485834                       # Avg latency of write requests ((Tick/Count))
system.generators14.readBW                          0                       # Read bandwidth ((Byte/Second))
system.generators14.writeBW              609915120.679034                       # Write bandwidth ((Byte/Second))
system.generators14.power_state.pwrStateResidencyTicks::UNDEFINED    100000800                       # Cumulative time (in ticks) in various power states (Tick)
system.generators15.numSuppressed                   0                       # Number of suppressed packets to non-memory space (Count)
system.generators15.numPackets                    954                       # Number of packets generated (Count)
system.generators15.numRetries                   1586                       # Number of retries (Count)
system.generators15.retryTicks               99916040                       # Time spent waiting due to back-pressure (Tick)
system.generators15.bytesRead                       0                       # Number of bytes read (Byte)
system.generators15.bytesWritten                60992                       # Number of bytes written (Byte)
system.generators15.totalReadLatency                0                       # Total latency of read requests (Tick)
system.generators15.totalWriteLatency       119547840                       # Total latency of write requests (Tick)
system.generators15.totalReads                      0                       # Total num of reads (Count)
system.generators15.totalWrites                   953                       # Total num of writes (Count)
system.generators15.avgReadLatency                nan                       # Avg latency of read requests ((Tick/Count))
system.generators15.avgWriteLatency      125443.693599                       # Avg latency of write requests ((Tick/Count))
system.generators15.readBW                          0                       # Read bandwidth ((Byte/Second))
system.generators15.writeBW              609915120.679034                       # Write bandwidth ((Byte/Second))
system.generators15.power_state.pwrStateResidencyTicks::UNDEFINED    100000800                       # Cumulative time (in ticks) in various power states (Tick)
system.generators16.numSuppressed                   0                       # Number of suppressed packets to non-memory space (Count)
system.generators16.numPackets                    954                       # Number of packets generated (Count)
system.generators16.numRetries                   1596                       # Number of retries (Count)
system.generators16.retryTicks               99914440                       # Time spent waiting due to back-pressure (Tick)
system.generators16.bytesRead                       0                       # Number of bytes read (Byte)
system.generators16.bytesWritten                60992                       # Number of bytes written (Byte)
system.generators16.totalReadLatency                0                       # Total latency of read requests (Tick)
system.generators16.totalWriteLatency       119546240                       # Total latency of write requests (Tick)
system.generators16.totalReads                      0                       # Total num of reads (Count)
system.generators16.totalWrites                   953                       # Total num of writes (Count)
system.generators16.avgReadLatency                nan                       # Avg latency of read requests ((Tick/Count))
system.generators16.avgWriteLatency      125442.014690                       # Avg latency of write requests ((Tick/Count))
system.generators16.readBW                          0                       # Read bandwidth ((Byte/Second))
system.generators16.writeBW              609915120.679034                       # Write bandwidth ((Byte/Second))
system.generators16.power_state.pwrStateResidencyTicks::UNDEFINED    100000800                       # Cumulative time (in ticks) in various power states (Tick)
system.generators17.numSuppressed                   0                       # Number of suppressed packets to non-memory space (Count)
system.generators17.numPackets                    954                       # Number of packets generated (Count)
system.generators17.numRetries                   1611                       # Number of retries (Count)
system.generators17.retryTicks               99913240                       # Time spent waiting due to back-pressure (Tick)
system.generators17.bytesRead                       0                       # Number of bytes read (Byte)
system.generators17.bytesWritten                60992                       # Number of bytes written (Byte)
system.generators17.totalReadLatency                0                       # Total latency of read requests (Tick)
system.generators17.totalWriteLatency       119545040                       # Total latency of write requests (Tick)
system.generators17.totalReads                      0                       # Total num of reads (Count)
system.generators17.totalWrites                   953                       # Total num of writes (Count)
system.generators17.avgReadLatency                nan                       # Avg latency of read requests ((Tick/Count))
system.generators17.avgWriteLatency      125440.755509                       # Avg latency of write requests ((Tick/Count))
system.generators17.readBW                          0                       # Read bandwidth ((Byte/Second))
system.generators17.writeBW              609915120.679034                       # Write bandwidth ((Byte/Second))
system.generators17.power_state.pwrStateResidencyTicks::UNDEFINED    100000800                       # Cumulative time (in ticks) in various power states (Tick)
system.generators18.numSuppressed                   0                       # Number of suppressed packets to non-memory space (Count)
system.generators18.numPackets                    954                       # Number of packets generated (Count)
system.generators18.numRetries                   1605                       # Number of retries (Count)
system.generators18.retryTicks               99910440                       # Time spent waiting due to back-pressure (Tick)
system.generators18.bytesRead                       0                       # Number of bytes read (Byte)
system.generators18.bytesWritten                60992                       # Number of bytes written (Byte)
system.generators18.totalReadLatency                0                       # Total latency of read requests (Tick)
system.generators18.totalWriteLatency       119542240                       # Total latency of write requests (Tick)
system.generators18.totalReads                      0                       # Total num of reads (Count)
system.generators18.totalWrites                   953                       # Total num of writes (Count)
system.generators18.avgReadLatency                nan                       # Avg latency of read requests ((Tick/Count))
system.generators18.avgWriteLatency      125437.817419                       # Avg latency of write requests ((Tick/Count))
system.generators18.readBW                          0                       # Read bandwidth ((Byte/Second))
system.generators18.writeBW              609915120.679034                       # Write bandwidth ((Byte/Second))
system.generators18.power_state.pwrStateResidencyTicks::UNDEFINED    100000800                       # Cumulative time (in ticks) in various power states (Tick)
system.generators19.numSuppressed                   0                       # Number of suppressed packets to non-memory space (Count)
system.generators19.numPackets                    954                       # Number of packets generated (Count)
system.generators19.numRetries                   1588                       # Number of retries (Count)
system.generators19.retryTicks               99910040                       # Time spent waiting due to back-pressure (Tick)
system.generators19.bytesRead                       0                       # Number of bytes read (Byte)
system.generators19.bytesWritten                60992                       # Number of bytes written (Byte)
system.generators19.totalReadLatency                0                       # Total latency of read requests (Tick)
system.generators19.totalWriteLatency       119541840                       # Total latency of write requests (Tick)
system.generators19.totalReads                      0                       # Total num of reads (Count)
system.generators19.totalWrites                   953                       # Total num of writes (Count)
system.generators19.avgReadLatency                nan                       # Avg latency of read requests ((Tick/Count))
system.generators19.avgWriteLatency      125437.397692                       # Avg latency of write requests ((Tick/Count))
system.generators19.readBW                          0                       # Read bandwidth ((Byte/Second))
system.generators19.writeBW              609915120.679034                       # Write bandwidth ((Byte/Second))
system.generators19.power_state.pwrStateResidencyTicks::UNDEFINED    100000800                       # Cumulative time (in ticks) in various power states (Tick)
system.generators2.numSuppressed                    0                       # Number of suppressed packets to non-memory space (Count)
system.generators2.numPackets                     954                       # Number of packets generated (Count)
system.generators2.numRetries                    1617                       # Number of retries (Count)
system.generators2.retryTicks                99938040                       # Time spent waiting due to back-pressure (Tick)
system.generators2.bytesRead                        0                       # Number of bytes read (Byte)
system.generators2.bytesWritten                 60992                       # Number of bytes written (Byte)
system.generators2.totalReadLatency                 0                       # Total latency of read requests (Tick)
system.generators2.totalWriteLatency        119569840                       # Total latency of write requests (Tick)
system.generators2.totalReads                       0                       # Total num of reads (Count)
system.generators2.totalWrites                    953                       # Total num of writes (Count)
system.generators2.avgReadLatency                 nan                       # Avg latency of read requests ((Tick/Count))
system.generators2.avgWriteLatency       125466.778594                       # Avg latency of write requests ((Tick/Count))
system.generators2.readBW                           0                       # Read bandwidth ((Byte/Second))
system.generators2.writeBW               609915120.679034                       # Write bandwidth ((Byte/Second))
system.generators2.power_state.pwrStateResidencyTicks::UNDEFINED    100000800                       # Cumulative time (in ticks) in various power states (Tick)
system.generators20.numSuppressed                   0                       # Number of suppressed packets to non-memory space (Count)
system.generators20.numPackets                    954                       # Number of packets generated (Count)
system.generators20.numRetries                   1597                       # Number of retries (Count)
system.generators20.retryTicks               99909640                       # Time spent waiting due to back-pressure (Tick)
system.generators20.bytesRead                       0                       # Number of bytes read (Byte)
system.generators20.bytesWritten                60992                       # Number of bytes written (Byte)
system.generators20.totalReadLatency                0                       # Total latency of read requests (Tick)
system.generators20.totalWriteLatency       119541440                       # Total latency of write requests (Tick)
system.generators20.totalReads                      0                       # Total num of reads (Count)
system.generators20.totalWrites                   953                       # Total num of writes (Count)
system.generators20.avgReadLatency                nan                       # Avg latency of read requests ((Tick/Count))
system.generators20.avgWriteLatency      125436.977964                       # Avg latency of write requests ((Tick/Count))
system.generators20.readBW                          0                       # Read bandwidth ((Byte/Second))
system.generators20.writeBW              609915120.679034                       # Write bandwidth ((Byte/Second))
system.generators20.power_state.pwrStateResidencyTicks::UNDEFINED    100000800                       # Cumulative time (in ticks) in various power states (Tick)
system.generators21.numSuppressed                   0                       # Number of suppressed packets to non-memory space (Count)
system.generators21.numPackets                    954                       # Number of packets generated (Count)
system.generators21.numRetries                   1602                       # Number of retries (Count)
system.generators21.retryTicks               99908040                       # Time spent waiting due to back-pressure (Tick)
system.generators21.bytesRead                       0                       # Number of bytes read (Byte)
system.generators21.bytesWritten                60992                       # Number of bytes written (Byte)
system.generators21.totalReadLatency                0                       # Total latency of read requests (Tick)
system.generators21.totalWriteLatency       119539840                       # Total latency of write requests (Tick)
system.generators21.totalReads                      0                       # Total num of reads (Count)
system.generators21.totalWrites                   953                       # Total num of writes (Count)
system.generators21.avgReadLatency                nan                       # Avg latency of read requests ((Tick/Count))
system.generators21.avgWriteLatency      125435.299056                       # Avg latency of write requests ((Tick/Count))
system.generators21.readBW                          0                       # Read bandwidth ((Byte/Second))
system.generators21.writeBW              609915120.679034                       # Write bandwidth ((Byte/Second))
system.generators21.power_state.pwrStateResidencyTicks::UNDEFINED    100000800                       # Cumulative time (in ticks) in various power states (Tick)
system.generators22.numSuppressed                   0                       # Number of suppressed packets to non-memory space (Count)
system.generators22.numPackets                    954                       # Number of packets generated (Count)
system.generators22.numRetries                   1602                       # Number of retries (Count)
[...]
system.scheds28.failedArbitrations                  0                       # Number of times an arbitration failed to send a request to MemCtrl (Count)
system.scheds28.totalArbitrations                   0                       # Total number of arbitrations over the request queues in the MemScheduler (Count)
system.scheds28.totalRQDelay                        0                       # Total queueing delay read requests have experienced in the MemScheduler (Count)
system.scheds28.totalWQDelay                        0                       # Total queueing delay write requests have experienced in the MemScheduler (Count)
system.scheds28.totalRespDelay                      0                       # total queueing delay in the response queue experienced by the MemScheduler (Count)
system.scheds28.avgRQDelay                        nan                       # Average queueing delay read requests have experienced in the MemScheduler (Count)
system.scheds28.avgWQDelay                        nan                       # Average queueing delay write requests have experienced in the MemScheduler (Count)
system.scheds28.avgRespDelay                      nan                       # Average queueing delay in the response queue experienced by the MemScheduler (Count)
system.scheds28.power_state.pwrStateResidencyTicks::UNDEFINED    100000800                       # Cumulative time (in ticks) in various power states (Tick)
system.scheds29.readReqs                            0                       # Number of read requests received by the MemScheduler (Count)
system.scheds29.writeReqs                           0                       # Number of write requests received by the MemScheduler (Count)
system.scheds29.bankConflicts                       0                       # Number of bank conflicts (Count)
system.scheds29.failedArbitrations                  0                       # Number of times an arbitration failed to send a request to MemCtrl (Count)
system.scheds29.totalArbitrations                   0                       # Total number of arbitrations over the request queues in the MemScheduler (Count)
system.scheds29.totalRQDelay                        0                       # Total queueing delay read requests have experienced in the MemScheduler (Count)
system.scheds29.totalWQDelay                        0                       # Total queueing delay write requests have experienced in the MemScheduler (Count)
system.scheds29.totalRespDelay                      0                       # total queueing delay in the response queue experienced by the MemScheduler (Count)
system.scheds29.avgRQDelay                        nan                       # Average queueing delay read requests have experienced in the MemScheduler (Count)
system.scheds29.avgWQDelay                        nan                       # Average queueing delay write requests have experienced in the MemScheduler (Count)
system.scheds29.avgRespDelay                      nan                       # Average queueing delay in the response queue experienced by the MemScheduler (Count)
system.scheds29.power_state.pwrStateResidencyTicks::UNDEFINED    100000800                       # Cumulative time (in ticks) in various power states (Tick)
system.scheds3.readReqs                             0                       # Number of read requests received by the MemScheduler (Count)
system.scheds3.writeReqs                            0                       # Number of write requests received by the MemScheduler (Count)
system.scheds3.bankConflicts                        0                       # Number of bank conflicts (Count)
system.scheds3.failedArbitrations                   0                       # Number of times an arbitration failed to send a request to MemCtrl (Count)
system.scheds3.totalArbitrations                    0                       # Total number of arbitrations over the request queues in the MemScheduler (Count)
system.scheds3.totalRQDelay                         0                       # Total queueing delay read requests have experienced in the MemScheduler (Count)
system.scheds3.totalWQDelay                         0                       # Total queueing delay write requests have experienced in the MemScheduler (Count)
system.scheds3.totalRespDelay                       0                       # total queueing delay in the response queue experienced by the MemScheduler (Count)
system.scheds3.avgRQDelay                         nan                       # Average queueing delay read requests have experienced in the MemScheduler (Count)
system.scheds3.avgWQDelay                         nan                       # Average queueing delay write requests have experienced in the MemScheduler (Count)
system.scheds3.avgRespDelay                       nan                       # Average queueing delay in the response queue experienced by the MemScheduler (Count)
system.scheds3.power_state.pwrStateResidencyTicks::UNDEFINED    100000800                       # Cumulative time (in ticks) in various power states (Tick)
system.scheds30.readReqs                            0                       # Number of read requests received by the MemScheduler (Count)
system.scheds30.writeReqs                           0                       # Number of write requests received by the MemScheduler (Count)
system.scheds30.bankConflicts                       0                       # Number of bank conflicts (Count)
system.scheds30.failedArbitrations                  0                       # Number of times an arbitration failed to send a request to MemCtrl (Count)
system.scheds30.totalArbitrations                   0                       # Total number of arbitrations over the request queues in the MemScheduler (Count)
system.scheds30.totalRQDelay                        0                       # Total queueing delay read requests have experienced in the MemScheduler (Count)
system.scheds30.totalWQDelay                        0                       # Total queueing delay write requests have experienced in the MemScheduler (Count)
system.scheds30.totalRespDelay                      0                       # total queueing delay in the response queue experienced by the MemScheduler (Count)
system.scheds30.avgRQDelay                        nan                       # Average queueing delay read requests have experienced in the MemScheduler (Count)
system.scheds30.avgWQDelay                        nan                       # Average queueing delay write requests have experienced in the MemScheduler (Count)
system.scheds30.avgRespDelay                      nan                       # Average queueing delay in the response queue experienced by the MemScheduler (Count)
system.scheds30.power_state.pwrStateResidencyTicks::UNDEFINED    100000800                       # Cumulative time (in ticks) in various power states (Tick)
system.scheds31.readReqs                            0                       # Number of read requests received by the MemScheduler (Count)
system.scheds31.writeReqs                           0                       # Number of write requests received by the MemScheduler (Count)
system.scheds31.bankConflicts                       0                       # Number of bank conflicts (Count)
system.scheds31.failedArbitrations                  0                       # Number of times an arbitration failed to send a request to MemCtrl (Count)
system.scheds31.totalArbitrations                   0                       # Total number of arbitrations over the request queues in the MemScheduler (Count)
system.scheds31.totalRQDelay                        0                       # Total queueing delay read requests have experienced in the MemScheduler (Count)
system.scheds31.totalWQDelay                        0                       # Total queueing delay write requests have experienced in the MemScheduler (Count)
system.scheds31.totalRespDelay                      0                       # total queueing delay in the response queue experienced by the MemScheduler (Count)
system.scheds31.avgRQDelay                        nan                       # Average queueing delay read requests have experienced in the MemScheduler (Count)
system.scheds31.avgWQDelay                        nan                       # Average queueing delay write requests have experienced in the MemScheduler (Count)
system.scheds31.avgRespDelay                      nan                       # Average queueing delay in the response queue experienced by the MemScheduler (Count)
system.scheds31.power_state.pwrStateResidencyTicks::UNDEFINED    100000800                       # Cumulative time (in ticks) in various power states (Tick)
system.scheds4.readReqs                             0                       # Number of read requests received by the MemScheduler (Count)
system.scheds4.writeReqs                            0                       # Number of write requests received by the MemScheduler (Count)
system.scheds4.bankConflicts                        0                       # Number of bank conflicts (Count)
system.scheds4.failedArbitrations                   0                       # Number of times an arbitration failed to send a request to MemCtrl (Count)
system.scheds4.totalArbitrations                    0                       # Total number of arbitrations over the request queues in the MemScheduler (Count)
system.scheds4.totalRQDelay                         0                       # Total queueing delay read requests have experienced in the MemScheduler (Count)
system.scheds4.totalWQDelay                         0                       # Total queueing delay write requests have experienced in the MemScheduler (Count)
system.scheds4.totalRespDelay                       0                       # total queueing delay in the response queue experienced by the MemScheduler (Count)
system.scheds4.avgRQDelay                         nan                       # Average queueing delay read requests have experienced in the MemScheduler (Count)
system.scheds4.avgWQDelay                         nan                       # Average queueing delay write requests have experienced in the MemScheduler (Count)
system.scheds4.avgRespDelay                       nan                       # Average queueing delay in the response queue experienced by the MemScheduler (Count)
system.scheds4.power_state.pwrStateResidencyTicks::UNDEFINED    100000800                       # Cumulative time (in ticks) in various power states (Tick)
system.scheds5.readReqs                             0                       # Number of read requests received by the MemScheduler (Count)
system.scheds5.writeReqs                            0                       # Number of write requests received by the MemScheduler (Count)
system.scheds5.bankConflicts                        0                       # Number of bank conflicts (Count)
system.scheds5.failedArbitrations                   0                       # Number of times an arbitration failed to send a request to MemCtrl (Count)
system.scheds5.totalArbitrations                    0                       # Total number of arbitrations over the request queues in the MemScheduler (Count)
system.scheds5.totalRQDelay                         0                       # Total queueing delay read requests have experienced in the MemScheduler (Count)
system.scheds5.totalWQDelay                         0                       # Total queueing delay write requests have experienced in the MemScheduler (Count)
system.scheds5.totalRespDelay                       0                       # total queueing delay in the response queue experienced by the MemScheduler (Count)
system.scheds5.avgRQDelay                         nan                       # Average queueing delay read requests have experienced in the MemScheduler (Count)
system.scheds5.avgWQDelay                         nan                       # Average queueing delay write requests have experienced in the MemScheduler (Count)
system.scheds5.avgRespDelay                       nan                       # Average queueing delay in the response queue experienced by the MemScheduler (Count)
system.scheds5.power_state.pwrStateResidencyTicks::UNDEFINED    100000800                       # Cumulative time (in ticks) in various power states (Tick)
system.scheds6.readReqs                             0                       # Number of read requests received by the MemScheduler (Count)
system.scheds6.writeReqs                            0                       # Number of write requests received by the MemScheduler (Count)
system.scheds6.bankConflicts                        0                       # Number of bank conflicts (Count)
system.scheds6.failedArbitrations                   0                       # Number of times an arbitration failed to send a request to MemCtrl (Count)
system.scheds6.totalArbitrations                    0                       # Total number of arbitrations over the request queues in the MemScheduler (Count)
system.scheds6.totalRQDelay                         0                       # Total queueing delay read requests have experienced in the MemScheduler (Count)
system.scheds6.totalWQDelay                         0                       # Total queueing delay write requests have experienced in the MemScheduler (Count)
system.scheds6.totalRespDelay                       0                       # total queueing delay in the response queue experienced by the MemScheduler (Count)
system.scheds6.avgRQDelay                         nan                       # Average queueing delay read requests have experienced in the MemScheduler (Count)
system.scheds6.avgWQDelay                         nan                       # Average queueing delay write requests have experienced in the MemScheduler (Count)
system.scheds6.avgRespDelay                       nan                       # Average queueing delay in the response queue experienced by the MemScheduler (Count)
system.scheds6.power_state.pwrStateResidencyTicks::UNDEFINED    100000800                       # Cumulative time (in ticks) in various power states (Tick)
system.scheds7.readReqs                             0                       # Number of read requests received by the MemScheduler (Count)
system.scheds7.writeReqs                            0                       # Number of write requests received by the MemScheduler (Count)
system.scheds7.bankConflicts                        0                       # Number of bank conflicts (Count)
system.scheds7.failedArbitrations                   0                       # Number of times an arbitration failed to send a request to MemCtrl (Count)
system.scheds7.totalArbitrations                    0                       # Total number of arbitrations over the request queues in the MemScheduler (Count)
system.scheds7.totalRQDelay                         0                       # Total queueing delay read requests have experienced in the MemScheduler (Count)
system.scheds7.totalWQDelay                         0                       # Total queueing delay write requests have experienced in the MemScheduler (Count)
system.scheds7.totalRespDelay                       0                       # total queueing delay in the response queue experienced by the MemScheduler (Count)
system.scheds7.avgRQDelay                         nan                       # Average queueing delay read requests have experienced in the MemScheduler (Count)
system.scheds7.avgWQDelay                         nan                       # Average queueing delay write requests have experienced in the MemScheduler (Count)
system.scheds7.avgRespDelay                       nan                       # Average queueing delay in the response queue experienced by the MemScheduler (Count)
system.scheds7.power_state.pwrStateResidencyTicks::UNDEFINED    100000800                       # Cumulative time (in ticks) in various power states (Tick)
system.scheds8.readReqs                             0                       # Number of read requests received by the MemScheduler (Count)
system.scheds8.writeReqs                            0                       # Number of write requests received by the MemScheduler (Count)
system.scheds8.bankConflicts                        0                       # Number of bank conflicts (Count)
system.scheds8.failedArbitrations                   0                       # Number of times an arbitration failed to send a request to MemCtrl (Count)
system.scheds8.totalArbitrations                    0                       # Total number of arbitrations over the request queues in the MemScheduler (Count)
system.scheds8.totalRQDelay                         0                       # Total queueing delay read requests have experienced in the MemScheduler (Count)
system.scheds8.totalWQDelay                         0                       # Total queueing delay write requests have experienced in the MemScheduler (Count)
system.scheds8.totalRespDelay                       0                       # total queueing delay in the response queue experienced by the MemScheduler (Count)
system.scheds8.avgRQDelay                         nan                       # Average queueing delay read requests have experienced in the MemScheduler (Count)
system.scheds8.avgWQDelay                         nan                       # Average queueing delay write requests have experienced in the MemScheduler (Count)
system.scheds8.avgRespDelay                       nan                       # Average queueing delay in the response queue experienced by the MemScheduler (Count)
system.scheds8.power_state.pwrStateResidencyTicks::UNDEFINED    100000800                       # Cumulative time (in ticks) in various power states (Tick)
system.scheds9.readReqs                             0                       # Number of read requests received by the MemScheduler (Count)
system.scheds9.writeReqs                            0                       # Number of write requests received by the MemScheduler (Count)
system.scheds9.bankConflicts                        0                       # Number of bank conflicts (Count)
system.scheds9.failedArbitrations                   0                       # Number of times an arbitration failed to send a request to MemCtrl (Count)
system.scheds9.totalArbitrations                    0                       # Total number of arbitrations over the request queues in the MemScheduler (Count)
system.scheds9.totalRQDelay                         0                       # Total queueing delay read requests have experienced in the MemScheduler (Count)
system.scheds9.totalWQDelay                         0                       # Total queueing delay write requests have experienced in the MemScheduler (Count)
system.scheds9.totalRespDelay                       0                       # total queueing delay in the response queue experienced by the MemScheduler (Count)
system.scheds9.avgRQDelay                         nan                       # Average queueing delay read requests have experienced in the MemScheduler (Count)
system.scheds9.avgWQDelay                         nan                       # Average queueing delay write requests have experienced in the MemScheduler (Count)
system.scheds9.avgRespDelay                       nan                       # Average queueing delay in the response queue experienced by the MemScheduler (Count)
system.scheds9.power_state.pwrStateResidencyTicks::UNDEFINED    100000800                       # Cumulative time (in ticks) in various power states (Tick)
system.workload.inst.arm                            0                       # number of arm instructions executed (Count)
system.workload.inst.quiesce                        0                       # number of quiesce instructions executed (Count)

---------- End Simulation Statistics   ----------
