
---------- Begin Simulation Statistics ----------
simSeconds                                   0.000100                       # Number of seconds simulated (Second)
simTicks                                     99999999                       # Number of ticks simulated (Tick)
finalTick                                    99999999                       # Number of ticks from beginning of simulation (restored from checkpoints and never reset) (Tick)
simFreq                                  1000000000000                       # The number of ticks per simulated second ((Tick/Second))
hostSeconds                                      0.03                       # Real time elapsed on the host (Second)
hostTickRate                               3615256288                       # The number of ticks simulated per host second (ticks/s) ((Tick/Second))
hostMemory                                    3523232                       # Number of bytes of host memory used (Byte)
system.clk_domain.clock                           200                       # Clock period in ticks (Tick)
system.clk_domain.voltage_domain.voltage            1                       # Voltage in Volts (Volt)
system.far_mem_ctrl.avgPriority_writebacks::samples      1676.00                       # Average QoS priority value for accepted requests (Count)
system.far_mem_ctrl.priorityMinLatency   0.000000317492                       # per QoS priority minimum request to response latency (Second)
system.far_mem_ctrl.priorityMaxLatency   0.000000824692                       # per QoS priority maximum request to response latency (Second)
system.far_mem_ctrl.numReadWriteTurnArounds            0                       # Number of turnarounds from READ to WRITE (Count)
system.far_mem_ctrl.numWriteReadTurnArounds            0                       # Number of turnarounds from WRITE to READ (Count)
system.far_mem_ctrl.numStayReadState             5011                       # Number of times bus staying in READ state (Count)
system.far_mem_ctrl.numStayWriteState               0                       # Number of times bus staying in WRITE state (Count)
system.far_mem_ctrl.readReqs                     1676                       # Number of read requests accepted (Count)
system.far_mem_ctrl.writeReqs                       0                       # Number of write requests accepted (Count)
system.far_mem_ctrl.readBursts                   1676                       # Number of controller read bursts, including those serviced by the write queue (Count)
system.far_mem_ctrl.writeBursts                     0                       # Number of controller write bursts, including those merged in the write queue (Count)
system.far_mem_ctrl.servicedByWrQ                   0                       # Number of controller read bursts serviced by the write queue (Count)
system.far_mem_ctrl.mergedWrBursts                  0                       # Number of controller write bursts merged with an existing one (Count)
system.far_mem_ctrl.neitherReadNorWriteReqs            0                       # Number of requests that are neither read nor write (Count)
system.far_mem_ctrl.avgRdQLen                    3.29                       # Average read queue length when enqueuing ((Count/Tick))
system.far_mem_ctrl.avgWrQLen                    0.00                       # Average write queue length when enqueuing ((Count/Tick))
system.far_mem_ctrl.numRdRetry                      0                       # Number of times read queue was full causing retry (Count)
system.far_mem_ctrl.numWrRetry                      0                       # Number of times write queue was full causing retry (Count)
system.far_mem_ctrl.readPktSize::0                  0                       # Read request sizes (log2) (Count)
system.far_mem_ctrl.readPktSize::1                  0                       # Read request sizes (log2) (Count)
system.far_mem_ctrl.readPktSize::2                  0                       # Read request sizes (log2) (Count)
system.far_mem_ctrl.readPktSize::3                  0                       # Read request sizes (log2) (Count)
system.far_mem_ctrl.readPktSize::4                  0                       # Read request sizes (log2) (Count)
system.far_mem_ctrl.readPktSize::5                  0                       # Read request sizes (log2) (Count)
system.far_mem_ctrl.readPktSize::6               1676                       # Read request sizes (log2) (Count)
system.far_mem_ctrl.writePktSize::0                 0                       # Write request sizes (log2) (Count)
system.far_mem_ctrl.writePktSize::1                 0                       # Write request sizes (log2) (Count)
system.far_mem_ctrl.writePktSize::2                 0                       # Write request sizes (log2) (Count)
system.far_mem_ctrl.writePktSize::3                 0                       # Write request sizes (log2) (Count)
system.far_mem_ctrl.writePktSize::4                 0                       # Write request sizes (log2) (Count)
system.far_mem_ctrl.writePktSize::5                 0                       # Write request sizes (log2) (Count)
system.far_mem_ctrl.writePktSize::6                 0                       # Write request sizes (log2) (Count)
system.far_mem_ctrl.rdQLenPdf::0                   20                       # What read queue length does an incoming req see (Count)
system.far_mem_ctrl.rdQLenPdf::1                   41                       # What read queue length does an incoming req see (Count)
system.far_mem_ctrl.rdQLenPdf::2                 1194                       # What read queue length does an incoming req see (Count)
system.far_mem_ctrl.rdQLenPdf::3                  355                       # What read queue length does an incoming req see (Count)
system.far_mem_ctrl.rdQLenPdf::4                   53                       # What read queue length does an incoming req see (Count)
system.far_mem_ctrl.rdQLenPdf::5                   13                       # What read queue length does an incoming req see (Count)
system.far_mem_ctrl.rdQLenPdf::6                    0                       # What read queue length does an incoming req see (Count)
system.far_mem_ctrl.rdQLenPdf::7                    0                       # What read queue length does an incoming req see (Count)
system.far_mem_ctrl.rdQLenPdf::8                    0                       # What read queue length does an incoming req see (Count)
system.far_mem_ctrl.rdQLenPdf::9                    0                       # What read queue length does an incoming req see (Count)
system.far_mem_ctrl.rdQLenPdf::10                   0                       # What read queue length does an incoming req see (Count)
system.far_mem_ctrl.rdQLenPdf::11                   0                       # What read queue length does an incoming req see (Count)
system.far_mem_ctrl.rdQLenPdf::12                   0                       # What read queue length does an incoming req see (Count)
system.far_mem_ctrl.rdQLenPdf::13                   0                       # What read queue length does an incoming req see (Count)
system.far_mem_ctrl.rdQLenPdf::14                   0                       # What read queue length does an incoming req see (Count)
system.far_mem_ctrl.rdQLenPdf::15                   0                       # What read queue length does an incoming req see (Count)
system.far_mem_ctrl.rdQLenPdf::16                   0                       # What read queue length does an incoming req see (Count)
system.far_mem_ctrl.rdQLenPdf::17                   0                       # What read queue length does an incoming req see (Count)
system.far_mem_ctrl.rdQLenPdf::18                   0                       # What read queue length does an incoming req see (Count)
system.far_mem_ctrl.rdQLenPdf::19                   0                       # What read queue length does an incoming req see (Count)
system.far_mem_ctrl.rdQLenPdf::20                   0                       # What read queue length does an incoming req see (Count)
system.far_mem_ctrl.rdQLenPdf::21                   0                       # What read queue length does an incoming req see (Count)
system.far_mem_ctrl.rdQLenPdf::22                   0                       # What read queue length does an incoming req see (Count)
system.far_mem_ctrl.rdQLenPdf::23                   0                       # What read queue length does an incoming req see (Count)
system.far_mem_ctrl.rdQLenPdf::24                   0                       # What read queue length does an incoming req see (Count)
system.far_mem_ctrl.rdQLenPdf::25                   0                       # What read queue length does an incoming req see (Count)
system.far_mem_ctrl.rdQLenPdf::26                   0                       # What read queue length does an incoming req see (Count)
system.far_mem_ctrl.rdQLenPdf::27                   0                       # What read queue length does an incoming req see (Count)
system.far_mem_ctrl.rdQLenPdf::28                   0                       # What read queue length does an incoming req see (Count)
system.far_mem_ctrl.rdQLenPdf::29                   0                       # What read queue length does an incoming req see (Count)
system.far_mem_ctrl.rdQLenPdf::30                   0                       # What read queue length does an incoming req see (Count)
system.far_mem_ctrl.rdQLenPdf::31                   0                       # What read queue length does an incoming req see (Count)
system.far_mem_ctrl.rdQLenPdf::32                   0                       # What read queue length does an incoming req see (Count)
system.far_mem_ctrl.rdQLenPdf::33                   0                       # What read queue length does an incoming req see (Count)
system.far_mem_ctrl.rdQLenPdf::34                   0                       # What read queue length does an incoming req see (Count)
system.far_mem_ctrl.rdQLenPdf::35                   0                       # What read queue length does an incoming req see (Count)
system.far_mem_ctrl.rdQLenPdf::36                   0                       # What read queue length does an incoming req see (Count)
system.far_mem_ctrl.rdQLenPdf::37                   0                       # What read queue length does an incoming req see (Count)
system.far_mem_ctrl.rdQLenPdf::38                   0                       # What read queue length does an incoming req see (Count)
system.far_mem_ctrl.rdQLenPdf::39                   0                       # What read queue length does an incoming req see (Count)
system.far_mem_ctrl.rdQLenPdf::40                   0                       # What read queue length does an incoming req see (Count)
system.far_mem_ctrl.rdQLenPdf::41                   0                       # What read queue length does an incoming req see (Count)
system.far_mem_ctrl.rdQLenPdf::42                   0                       # What read queue length does an incoming req see (Count)
system.far_mem_ctrl.rdQLenPdf::43                   0                       # What read queue length does an incoming req see (Count)
system.far_mem_ctrl.rdQLenPdf::44                   0                       # What read queue length does an incoming req see (Count)
system.far_mem_ctrl.rdQLenPdf::45                   0                       # What read queue length does an incoming req see (Count)
system.far_mem_ctrl.rdQLenPdf::46                   0                       # What read queue length does an incoming req see (Count)
system.far_mem_ctrl.rdQLenPdf::47                   0                       # What read queue length does an incoming req see (Count)
system.far_mem_ctrl.rdQLenPdf::48                   0                       # What read queue length does an incoming req see (Count)
system.far_mem_ctrl.rdQLenPdf::49                   0                       # What read queue length does an incoming req see (Count)
system.far_mem_ctrl.rdQLenPdf::50                   0                       # What read queue length does an incoming req see (Count)
system.far_mem_ctrl.rdQLenPdf::51                   0                       # What read queue length does an incoming req see (Count)
system.far_mem_ctrl.rdQLenPdf::52                   0                       # What read queue length does an incoming req see (Count)
system.far_mem_ctrl.rdQLenPdf::53                   0                       # What read queue length does an incoming req see (Count)
system.far_mem_ctrl.rdQLenPdf::54                   0                       # What read queue length does an incoming req see (Count)
system.far_mem_ctrl.rdQLenPdf::55                   0                       # What read queue length does an incoming req see (Count)
system.far_mem_ctrl.rdQLenPdf::56                   0                       # What read queue length does an incoming req see (Count)
system.far_mem_ctrl.rdQLenPdf::57                   0                       # What read queue length does an incoming req see (Count)
system.far_mem_ctrl.rdQLenPdf::58                   0                       # What read queue length does an incoming req see (Count)
system.far_mem_ctrl.rdQLenPdf::59                   0                       # What read queue length does an incoming req see (Count)
system.far_mem_ctrl.rdQLenPdf::60                   0                       # What read queue length does an incoming req see (Count)
system.far_mem_ctrl.rdQLenPdf::61                   0                       # What read queue length does an incoming req see (Count)
system.far_mem_ctrl.rdQLenPdf::62                   0                       # What read queue length does an incoming req see (Count)
system.far_mem_ctrl.rdQLenPdf::63                   0                       # What read queue length does an incoming req see (Count)
system.far_mem_ctrl.rdQLenPdf::64                   0                       # What read queue length does an incoming req see (Count)
system.far_mem_ctrl.rdQLenPdf::65                   0                       # What read queue length does an incoming req see (Count)
system.far_mem_ctrl.rdQLenPdf::66                   0                       # What read queue length does an incoming req see (Count)
system.far_mem_ctrl.rdQLenPdf::67                   0                       # What read queue length does an incoming req see (Count)
system.far_mem_ctrl.rdQLenPdf::68                   0                       # What read queue length does an incoming req see (Count)
system.far_mem_ctrl.rdQLenPdf::69                   0                       # What read queue length does an incoming req see (Count)
system.far_mem_ctrl.rdQLenPdf::70                   0                       # What read queue length does an incoming req see (Count)
system.far_mem_ctrl.rdQLenPdf::71                   0                       # What read queue length does an incoming req see (Count)
system.far_mem_ctrl.rdQLenPdf::72                   0                       # What read queue length does an incoming req see (Count)
system.far_mem_ctrl.rdQLenPdf::73                   0                       # What read queue length does an incoming req see (Count)
system.far_mem_ctrl.rdQLenPdf::74                   0                       # What read queue length does an incoming req see (Count)
system.far_mem_ctrl.rdQLenPdf::75                   0                       # What read queue length does an incoming req see (Count)
system.far_mem_ctrl.rdQLenPdf::76                   0                       # What read queue length does an incoming req see (Count)
system.far_mem_ctrl.rdQLenPdf::77                   0                       # What read queue length does an incoming req see (Count)
system.far_mem_ctrl.rdQLenPdf::78                   0                       # What read queue length does an incoming req see (Count)
system.far_mem_ctrl.rdQLenPdf::79                   0                       # What read queue length does an incoming req see (Count)
system.far_mem_ctrl.rdQLenPdf::80                   0                       # What read queue length does an incoming req see (Count)
system.far_mem_ctrl.rdQLenPdf::81                   0                       # What read queue length does an incoming req see (Count)
system.far_mem_ctrl.rdQLenPdf::82                   0                       # What read queue length does an incoming req see (Count)
system.far_mem_ctrl.rdQLenPdf::83                   0                       # What read queue length does an incoming req see (Count)
system.far_mem_ctrl.rdQLenPdf::84                   0                       # What read queue length does an incoming req see (Count)
system.far_mem_ctrl.rdQLenPdf::85                   0                       # What read queue length does an incoming req see (Count)
system.far_mem_ctrl.rdQLenPdf::86                   0                       # What read queue length does an incoming req see (Count)
system.far_mem_ctrl.rdQLenPdf::87                   0                       # What read queue length does an incoming req see (Count)
system.far_mem_ctrl.rdQLenPdf::88                   0                       # What read queue length does an incoming req see (Count)
system.far_mem_ctrl.rdQLenPdf::89                   0                       # What read queue length does an incoming req see (Count)
system.far_mem_ctrl.rdQLenPdf::90                   0                       # What read queue length does an incoming req see (Count)
system.far_mem_ctrl.rdQLenPdf::91                   0                       # What read queue length does an incoming req see (Count)
system.far_mem_ctrl.rdQLenPdf::92                   0                       # What read queue length does an incoming req see (Count)
system.far_mem_ctrl.rdQLenPdf::93                   0                       # What read queue length does an incoming req see (Count)
system.far_mem_ctrl.rdQLenPdf::94                   0                       # What read queue length does an incoming req see (Count)
system.far_mem_ctrl.rdQLenPdf::95                   0                       # What read queue length does an incoming req see (Count)
system.far_mem_ctrl.rdQLenPdf::96                   0                       # What read queue length does an incoming req see (Count)
system.far_mem_ctrl.rdQLenPdf::97                   0                       # What read queue length does an incoming req see (Count)
system.far_mem_ctrl.rdQLenPdf::98                   0                       # What read queue length does an incoming req see (Count)
system.far_mem_ctrl.rdQLenPdf::99                   0                       # What read queue length does an incoming req see (Count)
system.far_mem_ctrl.rdQLenPdf::100                  0                       # What read queue length does an incoming req see (Count)
system.far_mem_ctrl.rdQLenPdf::101                  0                       # What read queue length does an incoming req see (Count)
system.far_mem_ctrl.rdQLenPdf::102                  0                       # What read queue length does an incoming req see (Count)
system.far_mem_ctrl.rdQLenPdf::103                  0                       # What read queue length does an incoming req see (Count)
system.far_mem_ctrl.rdQLenPdf::104                  0                       # What read queue length does an incoming req see (Count)
system.far_mem_ctrl.rdQLenPdf::105                  0                       # What read queue length does an incoming req see (Count)
system.far_mem_ctrl.rdQLenPdf::106                  0                       # What read queue length does an incoming req see (Count)
system.far_mem_ctrl.rdQLenPdf::107                  0                       # What read queue length does an incoming req see (Count)
system.far_mem_ctrl.rdQLenPdf::108                  0                       # What read queue length does an incoming req see (Count)
system.far_mem_ctrl.rdQLenPdf::109                  0                       # What read queue length does an incoming req see (Count)
system.far_mem_ctrl.rdQLenPdf::110                  0                       # What read queue length does an incoming req see (Count)
system.far_mem_ctrl.rdQLenPdf::111                  0                       # What read queue length does an incoming req see (Count)
system.far_mem_ctrl.rdQLenPdf::112                  0                       # What read queue length does an incoming req see (Count)
system.far_mem_ctrl.rdQLenPdf::113                  0                       # What read queue length does an incoming req see (Count)
system.far_mem_ctrl.rdQLenPdf::114                  0                       # What read queue length does an incoming req see (Count)
system.far_mem_ctrl.rdQLenPdf::115                  0                       # What read queue length does an incoming req see (Count)
system.far_mem_ctrl.rdQLenPdf::116                  0                       # What read queue length does an incoming req see (Count)
system.far_mem_ctrl.rdQLenPdf::117                  0                       # What read queue length does an incoming req see (Count)
system.far_mem_ctrl.rdQLenPdf::118                  0                       # What read queue length does an incoming req see (Count)
system.far_mem_ctrl.rdQLenPdf::119                  0                       # What read queue length does an incoming req see (Count)
system.far_mem_ctrl.rdQLenPdf::120                  0                       # What read queue length does an incoming req see (Count)
system.far_mem_ctrl.rdQLenPdf::121                  0                       # What read queue length does an incoming req see (Count)
system.far_mem_ctrl.rdQLenPdf::122                  0                       # What read queue length does an incoming req see (Count)
system.far_mem_ctrl.rdQLenPdf::123                  0                       # What read queue length does an incoming req see (Count)
system.far_mem_ctrl.rdQLenPdf::124                  0                       # What read queue length does an incoming req see (Count)
system.far_mem_ctrl.rdQLenPdf::125                  0                       # What read queue length does an incoming req see (Count)
system.far_mem_ctrl.rdQLenPdf::126                  0                       # What read queue length does an incoming req see (Count)
system.far_mem_ctrl.rdQLenPdf::127                  0                       # What read queue length does an incoming req see (Count)
system.far_mem_ctrl.wrQLenPdf::0                    0                       # What write queue length does an incoming req see (Count)
system.far_mem_ctrl.wrQLenPdf::1                    0                       # What write queue length does an incoming req see (Count)
system.far_mem_ctrl.wrQLenPdf::2                    0                       # What write queue length does an incoming req see (Count)
system.far_mem_ctrl.wrQLenPdf::3                    0                       # What write queue length does an incoming req see (Count)
system.far_mem_ctrl.wrQLenPdf::4                    0                       # What write queue length does an incoming req see (Count)
system.far_mem_ctrl.wrQLenPdf::5                    0                       # What write queue length does an incoming req see (Count)
system.far_mem_ctrl.wrQLenPdf::6                    0                       # What write queue length does an incoming req see (Count)
system.far_mem_ctrl.wrQLenPdf::7                    0                       # What write queue length does an incoming req see (Count)
system.far_mem_ctrl.wrQLenPdf::8                    0                       # What write queue length does an incoming req see (Count)
system.far_mem_ctrl.wrQLenPdf::9                    0                       # What write queue length does an incoming req see (Count)
system.far_mem_ctrl.wrQLenPdf::10                   0                       # What write queue length does an incoming req see (Count)
system.far_mem_ctrl.wrQLenPdf::11                   0                       # What write queue length does an incoming req see (Count)
system.far_mem_ctrl.wrQLenPdf::12                   0                       # What write queue length does an incoming req see (Count)
system.far_mem_ctrl.wrQLenPdf::13                   0                       # What write queue length does an incoming req see (Count)
system.far_mem_ctrl.wrQLenPdf::14                   0                       # What write queue length does an incoming req see (Count)
system.far_mem_ctrl.wrQLenPdf::15                   0                       # What write queue length does an incoming req see (Count)
system.far_mem_ctrl.wrQLenPdf::16                   0                       # What write queue length does an incoming req see (Count)
system.far_mem_ctrl.wrQLenPdf::17                   0                       # What write queue length does an incoming req see (Count)
system.far_mem_ctrl.wrQLenPdf::18                   0                       # What write queue length does an incoming req see (Count)
system.far_mem_ctrl.wrQLenPdf::19                   0                       # What write queue length does an incoming req see (Count)
system.far_mem_ctrl.wrQLenPdf::20                   0                       # What write queue length does an incoming req see (Count)
system.far_mem_ctrl.wrQLenPdf::21                   0                       # What write queue length does an incoming req see (Count)
system.far_mem_ctrl.wrQLenPdf::22                   0                       # What write queue length does an incoming req see (Count)
system.far_mem_ctrl.wrQLenPdf::23                   0                       # What write queue length does an incoming req see (Count)
system.far_mem_ctrl.wrQLenPdf::24                   0                       # What write queue length does an incoming req see (Count)
system.far_mem_ctrl.wrQLenPdf::25                   0                       # What write queue length does an incoming req see (Count)
system.far_mem_ctrl.wrQLenPdf::26                   0                       # What write queue length does an incoming req see (Count)
system.far_mem_ctrl.wrQLenPdf::27                   0                       # What write queue length does an incoming req see (Count)
system.far_mem_ctrl.wrQLenPdf::28                   0                       # What write queue length does an incoming req see (Count)
system.far_mem_ctrl.wrQLenPdf::29                   0                       # What write queue length does an incoming req see (Count)
system.far_mem_ctrl.wrQLenPdf::30                   0                       # What write queue length does an incoming req see (Count)
system.far_mem_ctrl.wrQLenPdf::31                   0                       # What write queue length does an incoming req see (Count)
system.far_mem_ctrl.wrQLenPdf::32                   0                       # What write queue length does an incoming req see (Count)
system.far_mem_ctrl.wrQLenPdf::33                   0                       # What write queue length does an incoming req see (Count)
system.far_mem_ctrl.wrQLenPdf::34                   0                       # What write queue length does an incoming req see (Count)
system.far_mem_ctrl.wrQLenPdf::35                   0                       # What write queue length does an incoming req see (Count)
system.far_mem_ctrl.wrQLenPdf::36                   0                       # What write queue length does an incoming req see (Count)
system.far_mem_ctrl.wrQLenPdf::37                   0                       # What write queue length does an incoming req see (Count)
system.far_mem_ctrl.wrQLenPdf::38                   0                       # What write queue length does an incoming req see (Count)
system.far_mem_ctrl.wrQLenPdf::39                   0                       # What write queue length does an incoming req see (Count)
system.far_mem_ctrl.wrQLenPdf::40                   0                       # What write queue length does an incoming req see (Count)
system.far_mem_ctrl.wrQLenPdf::41                   0                       # What write queue length does an incoming req see (Count)
system.far_mem_ctrl.wrQLenPdf::42                   0                       # What write queue length does an incoming req see (Count)
system.far_mem_ctrl.wrQLenPdf::43                   0                       # What write queue length does an incoming req see (Count)
system.far_mem_ctrl.wrQLenPdf::44                   0                       # What write queue length does an incoming req see (Count)
system.far_mem_ctrl.wrQLenPdf::45                   0                       # What write queue length does an incoming req see (Count)
system.far_mem_ctrl.wrQLenPdf::46                   0                       # What write queue length does an incoming req see (Count)
system.far_mem_ctrl.wrQLenPdf::47                   0                       # What write queue length does an incoming req see (Count)
system.far_mem_ctrl.wrQLenPdf::48                   0                       # What write queue length does an incoming req see (Count)
system.far_mem_ctrl.wrQLenPdf::49                   0                       # What write queue length does an incoming req see (Count)
system.far_mem_ctrl.wrQLenPdf::50                   0                       # What write queue length does an incoming req see (Count)
system.far_mem_ctrl.wrQLenPdf::51                   0                       # What write queue length does an incoming req see (Count)
system.far_mem_ctrl.wrQLenPdf::52                   0                       # What write queue length does an incoming req see (Count)
system.far_mem_ctrl.wrQLenPdf::53                   0                       # What write queue length does an incoming req see (Count)
system.far_mem_ctrl.wrQLenPdf::54                   0                       # What write queue length does an incoming req see (Count)
system.far_mem_ctrl.wrQLenPdf::55                   0                       # What write queue length does an incoming req see (Count)
system.far_mem_ctrl.wrQLenPdf::56                   0                       # What write queue length does an incoming req see (Count)
system.far_mem_ctrl.wrQLenPdf::57                   0                       # What write queue length does an incoming req see (Count)
system.far_mem_ctrl.wrQLenPdf::58                   0                       # What write queue length does an incoming req see (Count)
system.far_mem_ctrl.wrQLenPdf::59                   0                       # What write queue length does an incoming req see (Count)
system.far_mem_ctrl.wrQLenPdf::60                   0                       # What write queue length does an incoming req see (Count)
system.far_mem_ctrl.wrQLenPdf::61                   0                       # What write queue length does an incoming req see (Count)
system.far_mem_ctrl.wrQLenPdf::62                   0                       # What write queue length does an incoming req see (Count)
system.far_mem_ctrl.wrQLenPdf::63                   0                       # What write queue length does an incoming req see (Count)
system.far_mem_ctrl.wrQLenPdf::64                   0                       # What write queue length does an incoming req see (Count)
system.far_mem_ctrl.wrQLenPdf::65                   0                       # What write queue length does an incoming req see (Count)
system.far_mem_ctrl.wrQLenPdf::66                   0                       # What write queue length does an incoming req see (Count)
system.far_mem_ctrl.wrQLenPdf::67                   0                       # What write queue length does an incoming req see (Count)
system.far_mem_ctrl.wrQLenPdf::68                   0                       # What write queue length does an incoming req see (Count)
system.far_mem_ctrl.wrQLenPdf::69                   0                       # What write queue length does an incoming req see (Count)
system.far_mem_ctrl.wrQLenPdf::70                   0                       # What write queue length does an incoming req see (Count)
system.far_mem_ctrl.wrQLenPdf::71                   0                       # What write queue length does an incoming req see (Count)
system.far_mem_ctrl.wrQLenPdf::72                   0                       # What write queue length does an incoming req see (Count)
system.far_mem_ctrl.wrQLenPdf::73                   0                       # What write queue length does an incoming req see (Count)
system.far_mem_ctrl.wrQLenPdf::74                   0                       # What write queue length does an incoming req see (Count)
system.far_mem_ctrl.wrQLenPdf::75                   0                       # What write queue length does an incoming req see (Count)
system.far_mem_ctrl.wrQLenPdf::76                   0                       # What write queue length does an incoming req see (Count)
system.far_mem_ctrl.wrQLenPdf::77                   0                       # What write queue length does an incoming req see (Count)
system.far_mem_ctrl.wrQLenPdf::78                   0                       # What write queue length does an incoming req see (Count)
system.far_mem_ctrl.wrQLenPdf::79                   0                       # What write queue length does an incoming req see (Count)
system.far_mem_ctrl.wrQLenPdf::80                   0                       # What write queue length does an incoming req see (Count)
system.far_mem_ctrl.wrQLenPdf::81                   0                       # What write queue length does an incoming req see (Count)
system.far_mem_ctrl.wrQLenPdf::82                   0                       # What write queue length does an incoming req see (Count)
system.far_mem_ctrl.wrQLenPdf::83                   0                       # What write queue length does an incoming req see (Count)
system.far_mem_ctrl.wrQLenPdf::84                   0                       # What write queue length does an incoming req see (Count)
system.far_mem_ctrl.wrQLenPdf::85                   0                       # What write queue length does an incoming req see (Count)
system.far_mem_ctrl.wrQLenPdf::86                   0                       # What write queue length does an incoming req see (Count)
system.far_mem_ctrl.wrQLenPdf::87                   0                       # What write queue length does an incoming req see (Count)
system.far_mem_ctrl.wrQLenPdf::88                   0                       # What write queue length does an incoming req see (Count)
system.far_mem_ctrl.wrQLenPdf::89                   0                       # What write queue length does an incoming req see (Count)
system.far_mem_ctrl.wrQLenPdf::90                   0                       # What write queue length does an incoming req see (Count)
system.far_mem_ctrl.wrQLenPdf::91                   0                       # What write queue length does an incoming req see (Count)
system.far_mem_ctrl.wrQLenPdf::92                   0                       # What write queue length does an incoming req see (Count)
system.far_mem_ctrl.wrQLenPdf::93                   0                       # What write queue length does an incoming req see (Count)
system.far_mem_ctrl.wrQLenPdf::94                   0                       # What write queue length does an incoming req see (Count)
system.far_mem_ctrl.wrQLenPdf::95                   0                       # What write queue length does an incoming req see (Count)
system.far_mem_ctrl.wrQLenPdf::96                   0                       # What write queue length does an incoming req see (Count)
system.far_mem_ctrl.wrQLenPdf::97                   0                       # What write queue length does an incoming req see (Count)
system.far_mem_ctrl.wrQLenPdf::98                   0                       # What write queue length does an incoming req see (Count)
system.far_mem_ctrl.wrQLenPdf::99                   0                       # What write queue length does an incoming req see (Count)
system.far_mem_ctrl.wrQLenPdf::100                  0                       # What write queue length does an incoming req see (Count)
system.far_mem_ctrl.wrQLenPdf::101                  0                       # What write queue length does an incoming req see (Count)
system.far_mem_ctrl.wrQLenPdf::102                  0                       # What write queue length does an incoming req see (Count)
system.far_mem_ctrl.wrQLenPdf::103                  0                       # What write queue length does an incoming req see (Count)
system.far_mem_ctrl.wrQLenPdf::104                  0                       # What write queue length does an incoming req see (Count)
system.far_mem_ctrl.wrQLenPdf::105                  0                       # What write queue length does an incoming req see (Count)
system.far_mem_ctrl.wrQLenPdf::106                  0                       # What write queue length does an incoming req see (Count)
system.far_mem_ctrl.wrQLenPdf::107                  0                       # What write queue length does an incoming req see (Count)
system.far_mem_ctrl.wrQLenPdf::108                  0                       # What write queue length does an incoming req see (Count)
system.far_mem_ctrl.wrQLenPdf::109                  0                       # What write queue length does an incoming req see (Count)
system.far_mem_ctrl.wrQLenPdf::110                  0                       # What write queue length does an incoming req see (Count)
system.far_mem_ctrl.wrQLenPdf::111                  0                       # What write queue length does an incoming req see (Count)
system.far_mem_ctrl.wrQLenPdf::112                  0                       # What write queue length does an incoming req see (Count)
system.far_mem_ctrl.wrQLenPdf::113                  0                       # What write queue length does an incoming req see (Count)
system.far_mem_ctrl.wrQLenPdf::114                  0                       # What write queue length does an incoming req see (Count)
system.far_mem_ctrl.wrQLenPdf::115                  0                       # What write queue length does an incoming req see (Count)
system.far_mem_ctrl.wrQLenPdf::116                  0                       # What write queue length does an incoming req see (Count)
system.far_mem_ctrl.wrQLenPdf::117                  0                       # What write queue length does an incoming req see (Count)
system.far_mem_ctrl.wrQLenPdf::118                  0                       # What write queue length does an incoming req see (Count)
system.far_mem_ctrl.wrQLenPdf::119                  0                       # What write queue length does an incoming req see (Count)
system.far_mem_ctrl.wrQLenPdf::120                  0                       # What write queue length does an incoming req see (Count)
system.far_mem_ctrl.wrQLenPdf::121                  0                       # What write queue length does an incoming req see (Count)
system.far_mem_ctrl.wrQLenPdf::122                  0                       # What write queue length does an incoming req see (Count)
system.far_mem_ctrl.wrQLenPdf::123                  0                       # What write queue length does an incoming req see (Count)
system.far_mem_ctrl.wrQLenPdf::124                  0                       # What write queue length does an incoming req see (Count)
system.far_mem_ctrl.wrQLenPdf::125                  0                       # What write queue length does an incoming req see (Count)
system.far_mem_ctrl.wrQLenPdf::126                  0                       # What write queue length does an incoming req see (Count)
system.far_mem_ctrl.wrQLenPdf::127                  0                       # What write queue length does an incoming req see (Count)
system.far_mem_ctrl.bytesReadWrQ                    0                       # Total number of bytes read from write queue (Byte)
system.far_mem_ctrl.bytesReadSys               107264                       # Total read bytes from the system interface side (Byte)
system.far_mem_ctrl.bytesWrittenSys                 0                       # Total written bytes from the system interface side (Byte)
system.far_mem_ctrl.avgRdBWSys           1072640010.72640014                       # Average system read bandwidth in Byte/s ((Byte/Second))
system.far_mem_ctrl.avgWrBWSys             0.00000000                       # Average system write bandwidth in Byte/s ((Byte/Second))
system.far_mem_ctrl.totGap                   99836600                       # Total gap between requests (Tick)
system.far_mem_ctrl.avgGap                   59568.38                       # Average gap between requests ((Tick/Count))
system.far_mem_ctrl.requestorReadBytes::writebacks       107136                       # Per-requestor bytes read from memory (Byte)
system.far_mem_ctrl.requestorReadRate::writebacks 1071360010.713600158691                       # Per-requestor bytes read from memory rate ((Byte/Second))
system.far_mem_ctrl.requestorReadAccesses::writebacks         1676                       # Per-requestor read serviced memory accesses (Count)
system.far_mem_ctrl.requestorReadTotalLat::writebacks    296664199                       # Per-requestor read total memory access latency (Tick)
system.far_mem_ctrl.requestorReadAvgLat::writebacks    177007.28                       # Per-requestor read average memory access latency ((Tick/Count))
system.far_mem_ctrl.dram.bytesRead::writebacks       107136                       # Number of bytes read from this memory (Byte)
system.far_mem_ctrl.dram.bytesRead::total       107136                       # Number of bytes read from this memory (Byte)
system.far_mem_ctrl.dram.numReads::writebacks         1674                       # Number of read requests responded to by this memory (Count)
system.far_mem_ctrl.dram.numReads::total         1674                       # Number of read requests responded to by this memory (Count)
system.far_mem_ctrl.dram.bwRead::writebacks   1071360011                       # Total read bandwidth from this memory ((Byte/Second))
system.far_mem_ctrl.dram.bwRead::total     1071360011                       # Total read bandwidth from this memory ((Byte/Second))
system.far_mem_ctrl.dram.bwTotal::writebacks   1071360011                       # Total bandwidth to/from this memory ((Byte/Second))
system.far_mem_ctrl.dram.bwTotal::total    1071360011                       # Total bandwidth to/from this memory ((Byte/Second))
system.far_mem_ctrl.dram.readBursts              1674                       # Number of NVM read bursts (Count)
system.far_mem_ctrl.dram.writeBursts                0                       # Number of NVM write bursts (Count)
system.far_mem_ctrl.dram.perBankRdBursts::0          102                       # Per bank write bursts (Count)
system.far_mem_ctrl.dram.perBankRdBursts::1          107                       # Per bank write bursts (Count)
system.far_mem_ctrl.dram.perBankRdBursts::2           99                       # Per bank write bursts (Count)
system.far_mem_ctrl.dram.perBankRdBursts::3           99                       # Per bank write bursts (Count)
system.far_mem_ctrl.dram.perBankRdBursts::4           97                       # Per bank write bursts (Count)
system.far_mem_ctrl.dram.perBankRdBursts::5          104                       # Per bank write bursts (Count)
system.far_mem_ctrl.dram.perBankRdBursts::6          104                       # Per bank write bursts (Count)
system.far_mem_ctrl.dram.perBankRdBursts::7          105                       # Per bank write bursts (Count)
system.far_mem_ctrl.dram.perBankRdBursts::8           85                       # Per bank write bursts (Count)
system.far_mem_ctrl.dram.perBankRdBursts::9           89                       # Per bank write bursts (Count)
system.far_mem_ctrl.dram.perBankRdBursts::10          110                       # Per bank write bursts (Count)
system.far_mem_ctrl.dram.perBankRdBursts::11          104                       # Per bank write bursts (Count)
system.far_mem_ctrl.dram.perBankRdBursts::12          118                       # Per bank write bursts (Count)
system.far_mem_ctrl.dram.perBankRdBursts::13          124                       # Per bank write bursts (Count)
system.far_mem_ctrl.dram.perBankRdBursts::14          122                       # Per bank write bursts (Count)
system.far_mem_ctrl.dram.perBankRdBursts::15          105                       # Per bank write bursts (Count)
system.far_mem_ctrl.dram.perBankWrBursts::0            0                       # Per bank write bursts (Count)
system.far_mem_ctrl.dram.perBankWrBursts::1            0                       # Per bank write bursts (Count)
system.far_mem_ctrl.dram.perBankWrBursts::2            0                       # Per bank write bursts (Count)
system.far_mem_ctrl.dram.perBankWrBursts::3            0                       # Per bank write bursts (Count)
system.far_mem_ctrl.dram.perBankWrBursts::4            0                       # Per bank write bursts (Count)
system.far_mem_ctrl.dram.perBankWrBursts::5            0                       # Per bank write bursts (Count)
system.far_mem_ctrl.dram.perBankWrBursts::6            0                       # Per bank write bursts (Count)
system.far_mem_ctrl.dram.perBankWrBursts::7            0                       # Per bank write bursts (Count)
system.far_mem_ctrl.dram.perBankWrBursts::8            0                       # Per bank write bursts (Count)
system.far_mem_ctrl.dram.perBankWrBursts::9            0                       # Per bank write bursts (Count)
system.far_mem_ctrl.dram.perBankWrBursts::10            0                       # Per bank write bursts (Count)
system.far_mem_ctrl.dram.perBankWrBursts::11            0                       # Per bank write bursts (Count)
system.far_mem_ctrl.dram.perBankWrBursts::12            0                       # Per bank write bursts (Count)
system.far_mem_ctrl.dram.perBankWrBursts::13            0                       # Per bank write bursts (Count)
system.far_mem_ctrl.dram.perBankWrBursts::14            0                       # Per bank write bursts (Count)
system.far_mem_ctrl.dram.perBankWrBursts::15            0                       # Per bank write bursts (Count)
system.far_mem_ctrl.dram.totQLat            267382591                       # Total ticks spent queuing (Tick)
system.far_mem_ctrl.dram.totBusLat            5577768                       # Total ticks spent in databus transfers (Tick)
system.far_mem_ctrl.dram.totMemAccLat       296664199                       # Total ticks spent from burst creation until serviced by the NVM (Tick)
system.far_mem_ctrl.dram.avgQLat            159726.76                       # Average queueing delay per NVM burst ((Tick/Count))
system.far_mem_ctrl.dram.avgBusLat            3332.00                       # Average bus latency per NVM burst ((Tick/Count))
system.far_mem_ctrl.dram.avgMemAccLat       177218.76                       # Average memory access latency per NVM burst ((Tick/Count))
system.far_mem_ctrl.dram.avgRdBW              1071.36                       # Average DRAM read bandwidth in MiBytes/s ((Byte/Second))
system.far_mem_ctrl.dram.avgWrBW                 0.00                       # Average DRAM write bandwidth in MiBytes/s ((Byte/Second))
system.far_mem_ctrl.dram.peakBW              19207.00                       # Theoretical peak bandwidth in MiByte/s ((Byte/Second))
system.far_mem_ctrl.dram.busUtil                 5.58                       # NVM Data bus utilization in percentage (Ratio)
system.far_mem_ctrl.dram.busUtilRead             5.58                       # NVM Data bus read utilization in percentage (Ratio)
system.far_mem_ctrl.dram.busUtilWrite            0.00                       # NVM Data bus write utilization in percentage (Ratio)
system.far_mem_ctrl.dram.pendingReads::samples         1674                       # Reads issued to NVM for which data has not been transferred (Count)
system.far_mem_ctrl.dram.pendingReads::mean     2.224612                       # Reads issued to NVM for which data has not been transferred (Count)
system.far_mem_ctrl.dram.pendingReads::stdev     0.613431                       # Reads issued to NVM for which data has not been transferred (Count)
system.far_mem_ctrl.dram.pendingReads::0           22      1.31%      1.31% # Reads issued to NVM for which data has not been transferred (Count)
system.far_mem_ctrl.dram.pendingReads::1           41      2.45%      3.76% # Reads issued to NVM for which data has not been transferred (Count)
system.far_mem_ctrl.dram.pendingReads::2         1208     72.16%     75.93% # Reads issued to NVM for which data has not been transferred (Count)
system.far_mem_ctrl.dram.pendingReads::3          349     20.85%     96.77% # Reads issued to NVM for which data has not been transferred (Count)
system.far_mem_ctrl.dram.pendingReads::4           50      2.99%     99.76% # Reads issued to NVM for which data has not been transferred (Count)
system.far_mem_ctrl.dram.pendingReads::5            4      0.24%    100.00% # Reads issued to NVM for which data has not been transferred (Count)
system.far_mem_ctrl.dram.pendingReads::total         1674                       # Reads issued to NVM for which data has not been transferred (Count)
system.far_mem_ctrl.dram.bytesPerBank::samples         1676                       # Bytes read within a bank before loading new bank (Byte)
system.far_mem_ctrl.dram.bytesPerBank::mean           64                       # Bytes read within a bank before loading new bank (Byte)
system.far_mem_ctrl.dram.bytesPerBank::gmean    64.000000                       # Bytes read within a bank before loading new bank (Byte)
system.far_mem_ctrl.dram.bytesPerBank::64         1676    100.00%    100.00% # Bytes read within a bank before loading new bank (Byte)
system.far_mem_ctrl.dram.bytesPerBank::total         1676                       # Bytes read within a bank before loading new bank (Byte)
system.far_mem_ctrl.dram.power_state.pwrStateResidencyTicks::UNDEFINED     99999999                       # Cumulative time (in ticks) in various power states (Tick)
system.far_mem_ctrl.power_state.pwrStateResidencyTicks::UNDEFINED     99999999                       # Cumulative time (in ticks) in various power states (Tick)
system.generators.numSuppressed                     0                       # Number of suppressed packets to non-memory space (Count)
system.generators.numPackets                     1677                       # Number of packets generated (Count)
system.generators.numRetries                        0                       # Number of retries (Count)
system.generators.retryTicks                        0                       # Time spent waiting due to back-pressure (Tick)
system.generators.bytesRead                    107072                       # Number of bytes read (Byte)
system.generators.bytesWritten                      0                       # Number of bytes written (Byte)
system.generators.totalReadLatency          473152396                       # Total latency of read requests (Tick)
system.generators.totalWriteLatency                 0                       # Total latency of write requests (Tick)
system.generators.totalReads                     1673                       # Total num of reads (Count)
system.generators.totalWrites                       0                       # Total num of writes (Count)
system.generators.avgReadLatency         282816.734011                       # Avg latency of read requests ((Tick/Count))
system.generators.avgWriteLatency                 nan                       # Avg latency of write requests ((Tick/Count))
system.generators.readBW                 1070720010.707200                       # Read bandwidth ((Byte/Second))
system.generators.writeBW                           0                       # Write bandwidth ((Byte/Second))
system.generators.power_state.pwrStateResidencyTicks::UNDEFINED     99999999                       # Cumulative time (in ticks) in various power states (Tick)
system.loc_mem_ctrlrs0.avgPriority_writebacks::samples        96.00                       # Average QoS priority value for accepted requests (Count)
system.loc_mem_ctrlrs0.priorityMinLatency 0.000000029000                       # per QoS priority minimum request to response latency (Second)
system.loc_mem_ctrlrs0.priorityMaxLatency 0.000120667400                       # per QoS priority maximum request to response latency (Second)
system.loc_mem_ctrlrs0.numReadWriteTurnArounds            1                       # Number of turnarounds from READ to WRITE (Count)
system.loc_mem_ctrlrs0.numWriteReadTurnArounds            1                       # Number of turnarounds from WRITE to READ (Count)
system.loc_mem_ctrlrs0.numStayReadState           169                       # Number of times bus staying in READ state (Count)
system.loc_mem_ctrlrs0.numStayWriteState           17                       # Number of times bus staying in WRITE state (Count)
system.loc_mem_ctrlrs0.readReqs                    48                       # Number of read requests accepted (Count)
system.loc_mem_ctrlrs0.writeReqs                   48                       # Number of write requests accepted (Count)
system.loc_mem_ctrlrs0.readBursts                  48                       # Number of controller read bursts, including those serviced by the write queue (Count)
system.loc_mem_ctrlrs0.writeBursts                 48                       # Number of controller write bursts, including those merged in the write queue (Count)
system.loc_mem_ctrlrs0.servicedByWrQ                0                       # Number of controller read bursts serviced by the write queue (Count)
system.loc_mem_ctrlrs0.mergedWrBursts               0                       # Number of controller write bursts merged with an existing one (Count)
system.loc_mem_ctrlrs0.neitherReadNorWriteReqs            0                       # Number of requests that are neither read nor write (Count)
system.loc_mem_ctrlrs0.avgRdQLen                 1.02                       # Average read queue length when enqueuing ((Count/Tick))
system.loc_mem_ctrlrs0.avgWrQLen                18.55                       # Average write queue length when enqueuing ((Count/Tick))
system.loc_mem_ctrlrs0.numRdRetry                   0                       # Number of times read queue was full causing retry (Count)
system.loc_mem_ctrlrs0.numWrRetry                   0                       # Number of times write queue was full causing retry (Count)
system.loc_mem_ctrlrs0.readPktSize::0               0                       # Read request sizes (log2) (Count)
system.loc_mem_ctrlrs0.readPktSize::1               0                       # Read request sizes (log2) (Count)
system.loc_mem_ctrlrs0.readPktSize::2               0                       # Read request sizes (log2) (Count)
system.loc_mem_ctrlrs0.readPktSize::3               0                       # Read request sizes (log2) (Count)
system.loc_mem_ctrlrs0.readPktSize::4               0                       # Read request sizes (log2) (Count)
system.loc_mem_ctrlrs0.readPktSize::5               0                       # Read request sizes (log2) (Count)
system.loc_mem_ctrlrs0.readPktSize::6              48                       # Read request sizes (log2) (Count)
system.loc_mem_ctrlrs0.writePktSize::0              0                       # Write request sizes (log2) (Count)
system.loc_mem_ctrlrs0.writePktSize::1              0                       # Write request sizes (log2) (Count)
system.loc_mem_ctrlrs0.writePktSize::2              0                       # Write request sizes (log2) (Count)
system.loc_mem_ctrlrs0.writePktSize::3              0                       # Write request sizes (log2) (Count)
system.loc_mem_ctrlrs0.writePktSize::4              0                       # Write request sizes (log2) (Count)
system.loc_mem_ctrlrs0.writePktSize::5              0                       # Write request sizes (log2) (Count)
system.loc_mem_ctrlrs0.writePktSize::6             48                       # Write request sizes (log2) (Count)
system.loc_mem_ctrlrs0.rdQLenPdf::0                47                       # What read queue length does an incoming req see (Count)
system.loc_mem_ctrlrs0.rdQLenPdf::1                 1                       # What read queue length does an incoming req see (Count)
system.loc_mem_ctrlrs0.rdQLenPdf::2                 0                       # What read queue length does an incoming req see (Count)
system.loc_mem_ctrlrs0.rdQLenPdf::3                 0                       # What read queue length does an incoming req see (Count)
system.loc_mem_ctrlrs0.rdQLenPdf::4                 0                       # What read queue length does an incoming req see (Count)
system.loc_mem_ctrlrs0.rdQLenPdf::5                 0                       # What read queue length does an incoming req see (Count)
system.loc_mem_ctrlrs0.rdQLenPdf::6                 0                       # What read queue length does an incoming req see (Count)
system.loc_mem_ctrlrs0.rdQLenPdf::7                 0                       # What read queue length does an incoming req see (Count)
system.loc_mem_ctrlrs0.rdQLenPdf::8                 0                       # What read queue length does an incoming req see (Count)
system.loc_mem_ctrlrs0.rdQLenPdf::9                 0                       # What read queue length does an incoming req see (Count)
system.loc_mem_ctrlrs0.rdQLenPdf::10                0                       # What read queue length does an incoming req see (Count)
system.loc_mem_ctrlrs0.rdQLenPdf::11                0                       # What read queue length does an incoming req see (Count)
system.loc_mem_ctrlrs0.rdQLenPdf::12                0                       # What read queue length does an incoming req see (Count)
system.loc_mem_ctrlrs0.rdQLenPdf::13                0                       # What read queue length does an incoming req see (Count)
system.loc_mem_ctrlrs0.rdQLenPdf::14                0                       # What read queue length does an incoming req see (Count)
system.loc_mem_ctrlrs0.rdQLenPdf::15                0                       # What read queue length does an incoming req see (Count)
system.loc_mem_ctrlrs0.rdQLenPdf::16                0                       # What read queue length does an incoming req see (Count)
system.loc_mem_ctrlrs0.rdQLenPdf::17                0                       # What read queue length does an incoming req see (Count)
system.loc_mem_ctrlrs0.rdQLenPdf::18                0                       # What read queue length does an incoming req see (Count)
system.loc_mem_ctrlrs0.rdQLenPdf::19                0                       # What read queue length does an incoming req see (Count)
system.loc_mem_ctrlrs0.rdQLenPdf::20                0                       # What read queue length does an incoming req see (Count)
system.loc_mem_ctrlrs0.rdQLenPdf::21                0                       # What read queue length does an incoming req see (Count)
system.loc_mem_ctrlrs0.rdQLenPdf::22                0                       # What read queue length does an incoming req see (Count)
system.loc_mem_ctrlrs0.rdQLenPdf::23                0                       # What read queue length does an incoming req see (Count)
system.loc_mem_ctrlrs0.rdQLenPdf::24                0                       # What read queue length does an incoming req see (Count)
system.loc_mem_ctrlrs0.rdQLenPdf::25                0                       # What read queue length does an incoming req see (Count)
system.loc_mem_ctrlrs0.rdQLenPdf::26                0                       # What read queue length does an incoming req see (Count)
system.loc_mem_ctrlrs0.rdQLenPdf::27                0                       # What read queue length does an incoming req see (Count)
system.loc_mem_ctrlrs0.rdQLenPdf::28                0                       # What read queue length does an incoming req see (Count)
system.loc_mem_ctrlrs0.rdQLenPdf::29                0                       # What read queue length does an incoming req see (Count)
system.loc_mem_ctrlrs0.rdQLenPdf::30                0                       # What read queue length does an incoming req see (Count)
system.loc_mem_ctrlrs0.rdQLenPdf::31                0                       # What read queue length does an incoming req see (Count)
system.loc_mem_ctrlrs0.wrQLenPdf::0                 1                       # What write queue length does an incoming req see (Count)
system.loc_mem_ctrlrs0.wrQLenPdf::1                 1                       # What write queue length does an incoming req see (Count)
system.loc_mem_ctrlrs0.wrQLenPdf::2                 1                       # What write queue length does an incoming req see (Count)
system.loc_mem_ctrlrs0.wrQLenPdf::3                 1                       # What write queue length does an incoming req see (Count)
system.loc_mem_ctrlrs0.wrQLenPdf::4                 1                       # What write queue length does an incoming req see (Count)
system.loc_mem_ctrlrs0.wrQLenPdf::5                 1                       # What write queue length does an incoming req see (Count)
system.loc_mem_ctrlrs0.wrQLenPdf::6                 1                       # What write queue length does an incoming req see (Count)
system.loc_mem_ctrlrs0.wrQLenPdf::7                 1                       # What write queue length does an incoming req see (Count)
system.loc_mem_ctrlrs0.wrQLenPdf::8                 1                       # What write queue length does an incoming req see (Count)
system.loc_mem_ctrlrs0.wrQLenPdf::9                 1                       # What write queue length does an incoming req see (Count)
system.loc_mem_ctrlrs0.wrQLenPdf::10                1                       # What write queue length does an incoming req see (Count)
system.loc_mem_ctrlrs0.wrQLenPdf::11                1                       # What write queue length does an incoming req see (Count)
system.loc_mem_ctrlrs0.wrQLenPdf::12                1                       # What write queue length does an incoming req see (Count)
system.loc_mem_ctrlrs0.wrQLenPdf::13                1                       # What write queue length does an incoming req see (Count)
system.loc_mem_ctrlrs0.wrQLenPdf::14                1                       # What write queue length does an incoming req see (Count)
system.loc_mem_ctrlrs0.wrQLenPdf::15                2                       # What write queue length does an incoming req see (Count)
system.loc_mem_ctrlrs0.wrQLenPdf::16                2                       # What write queue length does an incoming req see (Count)
system.loc_mem_ctrlrs0.wrQLenPdf::17                2                       # What write queue length does an incoming req see (Count)
system.loc_mem_ctrlrs0.wrQLenPdf::18                2                       # What write queue length does an incoming req see (Count)
system.loc_mem_ctrlrs0.wrQLenPdf::19                2                       # What write queue length does an incoming req see (Count)
system.loc_mem_ctrlrs0.wrQLenPdf::20                2                       # What write queue length does an incoming req see (Count)
system.loc_mem_ctrlrs0.wrQLenPdf::21                2                       # What write queue length does an incoming req see (Count)
system.loc_mem_ctrlrs0.wrQLenPdf::22                2                       # What write queue length does an incoming req see (Count)
system.loc_mem_ctrlrs0.wrQLenPdf::23                2                       # What write queue length does an incoming req see (Count)
system.loc_mem_ctrlrs0.wrQLenPdf::24                2                       # What write queue length does an incoming req see (Count)
system.loc_mem_ctrlrs0.wrQLenPdf::25                2                       # What write queue length does an incoming req see (Count)
system.loc_mem_ctrlrs0.wrQLenPdf::26                2                       # What write queue length does an incoming req see (Count)
system.loc_mem_ctrlrs0.wrQLenPdf::27                2                       # What write queue length does an incoming req see (Count)
system.loc_mem_ctrlrs0.wrQLenPdf::28                2                       # What write queue length does an incoming req see (Count)
system.loc_mem_ctrlrs0.wrQLenPdf::29                2                       # What write queue length does an incoming req see (Count)
system.loc_mem_ctrlrs0.wrQLenPdf::30                1                       # What write queue length does an incoming req see (Count)
system.loc_mem_ctrlrs0.wrQLenPdf::31                1                       # What write queue length does an incoming req see (Count)
system.loc_mem_ctrlrs0.wrQLenPdf::32                1                       # What write queue length does an incoming req see (Count)
system.loc_mem_ctrlrs0.wrQLenPdf::33                0                       # What write queue length does an incoming req see (Count)
system.loc_mem_ctrlrs0.wrQLenPdf::34                0                       # What write queue length does an incoming req see (Count)
system.loc_mem_ctrlrs0.wrQLenPdf::35                0                       # What write queue length does an incoming req see (Count)
system.loc_mem_ctrlrs0.wrQLenPdf::36                0                       # What write queue length does an incoming req see (Count)
system.loc_mem_ctrlrs0.wrQLenPdf::37                0                       # What write queue length does an incoming req see (Count)
system.loc_mem_ctrlrs0.wrQLenPdf::38                0                       # What write queue length does an incoming req see (Count)
system.loc_mem_ctrlrs0.wrQLenPdf::39                0                       # What write queue length does an incoming req see (Count)
system.loc_mem_ctrlrs0.wrQLenPdf::40                0                       # What write queue length does an incoming req see (Count)
system.loc_mem_ctrlrs0.wrQLenPdf::41                0                       # What write queue length does an incoming req see (Count)
system.loc_mem_ctrlrs0.wrQLenPdf::42                0                       # What write queue length does an incoming req see (Count)
system.loc_mem_ctrlrs0.wrQLenPdf::43                0                       # What write queue length does an incoming req see (Count)
system.loc_mem_ctrlrs0.wrQLenPdf::44                0                       # What write queue length does an incoming req see (Count)
system.loc_mem_ctrlrs0.wrQLenPdf::45                0                       # What write queue length does an incoming req see (Count)
system.loc_mem_ctrlrs0.wrQLenPdf::46                0                       # What write queue length does an incoming req see (Count)
system.loc_mem_ctrlrs0.wrQLenPdf::47                0                       # What write queue length does an incoming req see (Count)
system.loc_mem_ctrlrs0.wrQLenPdf::48                0                       # What write queue length does an incoming req see (Count)
system.loc_mem_ctrlrs0.wrQLenPdf::49                0                       # What write queue length does an incoming req see (Count)
system.loc_mem_ctrlrs0.wrQLenPdf::50                0                       # What write queue length does an incoming req see (Count)
system.loc_mem_ctrlrs0.wrQLenPdf::51                0                       # What write queue length does an incoming req see (Count)
system.loc_mem_ctrlrs0.wrQLenPdf::52                0                       # What write queue length does an incoming req see (Count)
system.loc_mem_ctrlrs0.wrQLenPdf::53                0                       # What write queue length does an incoming req see (Count)
system.loc_mem_ctrlrs0.wrQLenPdf::54                0                       # What write queue length does an incoming req see (Count)
system.loc_mem_ctrlrs0.wrQLenPdf::55                0                       # What write queue length does an incoming req see (Count)
system.loc_mem_ctrlrs0.wrQLenPdf::56                0                       # What write queue length does an incoming req see (Count)
system.loc_mem_ctrlrs0.wrQLenPdf::57                0                       # What write queue length does an incoming req see (Count)
system.loc_mem_ctrlrs0.wrQLenPdf::58                0                       # What write queue length does an incoming req see (Count)
system.loc_mem_ctrlrs0.wrQLenPdf::59                0                       # What write queue length does an incoming req see (Count)
system.loc_mem_ctrlrs0.wrQLenPdf::60                0                       # What write queue length does an incoming req see (Count)
system.loc_mem_ctrlrs0.wrQLenPdf::61                0                       # What write queue length does an incoming req see (Count)
system.loc_mem_ctrlrs0.wrQLenPdf::62                0                       # What write queue length does an incoming req see (Count)
system.loc_mem_ctrlrs0.wrQLenPdf::63                0                       # What write queue length does an incoming req see (Count)
system.loc_mem_ctrlrs0.rdPerTurnAround::samples            1                       # Reads before turning the bus around for writes (Count)
system.loc_mem_ctrlrs0.rdPerTurnAround::mean           33                       # Reads before turning the bus around for writes (Count)
system.loc_mem_ctrlrs0.rdPerTurnAround::gmean           33                       # Reads before turning the bus around for writes (Count)
system.loc_mem_ctrlrs0.rdPerTurnAround::stdev          nan                       # Reads before turning the bus around for writes (Count)
system.loc_mem_ctrlrs0.rdPerTurnAround::32-33            1    100.00%    100.00% # Reads before turning the bus around for writes (Count)
system.loc_mem_ctrlrs0.rdPerTurnAround::total            1                       # Reads before turning the bus around for writes (Count)
system.loc_mem_ctrlrs0.wrPerTurnAround::samples            1                       # Writes before turning the bus around for reads (Count)
system.loc_mem_ctrlrs0.wrPerTurnAround::mean           18                       # Writes before turning the bus around for reads (Count)
system.loc_mem_ctrlrs0.wrPerTurnAround::gmean    18.000000                       # Writes before turning the bus around for reads (Count)
system.loc_mem_ctrlrs0.wrPerTurnAround::stdev          nan                       # Writes before turning the bus around for reads (Count)
system.loc_mem_ctrlrs0.wrPerTurnAround::18            1    100.00%    100.00% # Writes before turning the bus around for reads (Count)
system.loc_mem_ctrlrs0.wrPerTurnAround::total            1                       # Writes before turning the bus around for reads (Count)
system.loc_mem_ctrlrs0.bytesReadWrQ                 0                       # Total number of bytes read from write queue (Byte)
system.loc_mem_ctrlrs0.bytesReadSys              3072                       # Total read bytes from the system interface side (Byte)
system.loc_mem_ctrlrs0.bytesWrittenSys           3072                       # Total written bytes from the system interface side (Byte)
system.loc_mem_ctrlrs0.avgRdBWSys        30720000.30720000                       # Average system read bandwidth in Byte/s ((Byte/Second))
system.loc_mem_ctrlrs0.avgWrBWSys        30720000.30720000                       # Average system write bandwidth in Byte/s ((Byte/Second))
system.loc_mem_ctrlrs0.totGap                98762800                       # Total gap between requests (Tick)
system.loc_mem_ctrlrs0.avgGap              1028779.17                       # Average gap between requests ((Tick/Count))
system.loc_mem_ctrlrs0.requestorReadBytes::writebacks         3072                       # Per-requestor bytes read from memory (Byte)
system.loc_mem_ctrlrs0.requestorWriteBytes::writebacks         1152                       # Per-requestor bytes write to memory (Byte)
system.loc_mem_ctrlrs0.requestorReadRate::writebacks 30720000.307200003415                       # Per-requestor bytes read from memory rate ((Byte/Second))
system.loc_mem_ctrlrs0.requestorWriteRate::writebacks 11520000.115200001746                       # Per-requestor bytes write to memory rate ((Byte/Second))
system.loc_mem_ctrlrs0.requestorReadAccesses::writebacks           48                       # Per-requestor read serviced memory accesses (Count)
system.loc_mem_ctrlrs0.requestorWriteAccesses::writebacks           48                       # Per-requestor write serviced memory accesses (Count)
system.loc_mem_ctrlrs0.requestorReadTotalLat::writebacks      1795200                       # Per-requestor read total memory access latency (Tick)
system.loc_mem_ctrlrs0.requestorWriteTotalLat::writebacks    817374200                       # Per-requestor write total memory access latency (Tick)
system.loc_mem_ctrlrs0.requestorReadAvgLat::writebacks     37400.00                       # Per-requestor read average memory access latency ((Tick/Count))
system.loc_mem_ctrlrs0.requestorWriteAvgLat::writebacks  17028629.17                       # Per-requestor write average memory access latency ((Tick/Count))
system.loc_mem_ctrlrs0.dram.bytesRead::writebacks         3072                       # Number of bytes read from this memory (Byte)
system.loc_mem_ctrlrs0.dram.bytesRead::total         3072                       # Number of bytes read from this memory (Byte)
system.loc_mem_ctrlrs0.dram.bytesWritten::writebacks         3072                       # Number of bytes written to this memory (Byte)
system.loc_mem_ctrlrs0.dram.bytesWritten::total         3072                       # Number of bytes written to this memory (Byte)
system.loc_mem_ctrlrs0.dram.numReads::writebacks           48                       # Number of read requests responded to by this memory (Count)
system.loc_mem_ctrlrs0.dram.numReads::total           48                       # Number of read requests responded to by this memory (Count)
system.loc_mem_ctrlrs0.dram.numWrites::writebacks           48                       # Number of write requests responded to by this memory (Count)
system.loc_mem_ctrlrs0.dram.numWrites::total           48                       # Number of write requests responded to by this memory (Count)
system.loc_mem_ctrlrs0.dram.bwRead::writebacks     30720000                       # Total read bandwidth from this memory ((Byte/Second))
system.loc_mem_ctrlrs0.dram.bwRead::total     30720000                       # Total read bandwidth from this memory ((Byte/Second))
system.loc_mem_ctrlrs0.dram.bwWrite::writebacks     30720000                       # Write bandwidth from this memory ((Byte/Second))
system.loc_mem_ctrlrs0.dram.bwWrite::total     30720000                       # Write bandwidth from this memory ((Byte/Second))
system.loc_mem_ctrlrs0.dram.bwTotal::writebacks     61440001                       # Total bandwidth to/from this memory ((Byte/Second))
system.loc_mem_ctrlrs0.dram.bwTotal::total     61440001                       # Total bandwidth to/from this memory ((Byte/Second))
system.loc_mem_ctrlrs0.dram.readBursts             48                       # Number of DRAM read bursts (Count)
system.loc_mem_ctrlrs0.dram.writeBursts            18                       # Number of DRAM write bursts (Count)
system.loc_mem_ctrlrs0.dram.perBankRdBursts::0           21                       # Per bank write bursts (Count)
system.loc_mem_ctrlrs0.dram.perBankRdBursts::1           27                       # Per bank write bursts (Count)
system.loc_mem_ctrlrs0.dram.perBankWrBursts::0            9                       # Per bank write bursts (Count)
system.loc_mem_ctrlrs0.dram.perBankWrBursts::1            9                       # Per bank write bursts (Count)
system.loc_mem_ctrlrs0.dram.totQLat            787200                       # Total ticks spent queuing (Tick)
system.loc_mem_ctrlrs0.dram.totBusLat          768000                       # Total ticks spent in databus transfers (Tick)
system.loc_mem_ctrlrs0.dram.totMemAccLat      1795200                       # Total ticks spent from burst creation until serviced by the DRAM (Tick)
system.loc_mem_ctrlrs0.dram.avgQLat          16400.00                       # Average queueing delay per DRAM burst ((Tick/Count))
system.loc_mem_ctrlrs0.dram.avgBusLat        16000.00                       # Average bus latency per DRAM burst ((Tick/Count))
system.loc_mem_ctrlrs0.dram.avgMemAccLat     37400.00                       # Average memory access latency per DRAM burst ((Tick/Count))
system.loc_mem_ctrlrs0.dram.readRowHits             0                       # Number of row buffer hits during reads (Count)
system.loc_mem_ctrlrs0.dram.writeRowHits            0                       # Number of row buffer hits during writes (Count)
system.loc_mem_ctrlrs0.dram.readRowHitRate         0.00                       # Row buffer hit rate for reads (Ratio)
system.loc_mem_ctrlrs0.dram.writeRowHitRate         0.00                       # Row buffer hit rate for writes (Ratio)
system.loc_mem_ctrlrs0.dram.bytesPerActivate::samples           66                       # Bytes accessed per row activation (Byte)
system.loc_mem_ctrlrs0.dram.bytesPerActivate::mean           64                       # Bytes accessed per row activation (Byte)
system.loc_mem_ctrlrs0.dram.bytesPerActivate::gmean    64.000000                       # Bytes accessed per row activation (Byte)
system.loc_mem_ctrlrs0.dram.bytesPerActivate::64-71           66    100.00%    100.00% # Bytes accessed per row activation (Byte)
system.loc_mem_ctrlrs0.dram.bytesPerActivate::total           66                       # Bytes accessed per row activation (Byte)
system.loc_mem_ctrlrs0.dram.bytesRead            3072                       # Total bytes read (Byte)
system.loc_mem_ctrlrs0.dram.bytesWritten         1152                       # Total bytes written (Byte)
system.loc_mem_ctrlrs0.dram.avgRdBW         30.720000                       # Average DRAM read bandwidth in MiBytes/s ((Byte/Second))
system.loc_mem_ctrlrs0.dram.avgWrBW         11.520000                       # Average DRAM write bandwidth in MiBytes/s ((Byte/Second))
system.loc_mem_ctrlrs0.dram.peakBW           32000.00                       # Theoretical peak bandwidth in MiByte/s ((Byte/Second))
system.loc_mem_ctrlrs0.dram.busUtil              0.13                       # Data bus utilization in percentage (Ratio)
system.loc_mem_ctrlrs0.dram.busUtilRead          0.10                       # Data bus utilization in percentage for reads (Ratio)
system.loc_mem_ctrlrs0.dram.busUtilWrite         0.04                       # Data bus utilization in percentage for writes (Ratio)
system.loc_mem_ctrlrs0.dram.pageHitRate          0.00                       # Row buffer hit rate, read and write combined (Ratio)
system.loc_mem_ctrlrs0.dram.power_state.pwrStateResidencyTicks::UNDEFINED     99999999                       # Cumulative time (in ticks) in various power states (Tick)
system.loc_mem_ctrlrs0.dram.rank0.actEnergy            0                       # Energy for activate commands per rank (pJ) (Joule)
system.loc_mem_ctrlrs0.dram.rank0.preEnergy            0                       # Energy for precharge commands per rank (pJ) (Joule)
system.loc_mem_ctrlrs0.dram.rank0.readEnergy            0                       # Energy for read commands per rank (pJ) (Joule)
system.loc_mem_ctrlrs0.dram.rank0.writeEnergy            0                       # Energy for write commands per rank (pJ) (Joule)
system.loc_mem_ctrlrs0.dram.rank0.refreshEnergy            0                       # Energy for refresh commands per rank (pJ) (Joule)
system.loc_mem_ctrlrs0.dram.rank0.actBackEnergy            0                       # Energy for active background per rank (pJ) (Joule)
system.loc_mem_ctrlrs0.dram.rank0.preBackEnergy            0                       # Energy for precharge background per rank (pJ) (Joule)
system.loc_mem_ctrlrs0.dram.rank0.actPowerDownEnergy            0                       # Energy for active power-down per rank (pJ) (Joule)
[...]
system.scheds28.failedArbitrations                  0                       # Number of times an arbitration failed to send a request to MemCtrl (Count)
system.scheds28.totalArbitrations                   0                       # Total number of arbitrations over the request queues in the MemScheduler (Count)
system.scheds28.totalRQDelay                        0                       # Total queueing delay read requests have experienced in the MemScheduler (Count)
system.scheds28.totalWQDelay                        0                       # Total queueing delay write requests have experienced in the MemScheduler (Count)
system.scheds28.totalRespDelay                      0                       # total queueing delay in the response queue experienced by the MemScheduler (Count)
system.scheds28.avgRQDelay                        nan                       # Average queueing delay read requests have experienced in the MemScheduler (Count)
system.scheds28.avgWQDelay                        nan                       # Average queueing delay write requests have experienced in the MemScheduler (Count)
system.scheds28.avgRespDelay                      nan                       # Average queueing delay in the response queue experienced by the MemScheduler (Count)
system.scheds28.power_state.pwrStateResidencyTicks::UNDEFINED     99999999                       # Cumulative time (in ticks) in various power states (Tick)
system.scheds29.readReqs                            0                       # Number of read requests received by the MemScheduler (Count)
system.scheds29.writeReqs                           0                       # Number of write requests received by the MemScheduler (Count)
system.scheds29.bankConflicts                       0                       # Number of bank conflicts (Count)
system.scheds29.failedArbitrations                  0                       # Number of times an arbitration failed to send a request to MemCtrl (Count)
system.scheds29.totalArbitrations                   0                       # Total number of arbitrations over the request queues in the MemScheduler (Count)
system.scheds29.totalRQDelay                        0                       # Total queueing delay read requests have experienced in the MemScheduler (Count)
system.scheds29.totalWQDelay                        0                       # Total queueing delay write requests have experienced in the MemScheduler (Count)
system.scheds29.totalRespDelay                      0                       # total queueing delay in the response queue experienced by the MemScheduler (Count)
system.scheds29.avgRQDelay                        nan                       # Average queueing delay read requests have experienced in the MemScheduler (Count)
system.scheds29.avgWQDelay                        nan                       # Average queueing delay write requests have experienced in the MemScheduler (Count)
system.scheds29.avgRespDelay                      nan                       # Average queueing delay in the response queue experienced by the MemScheduler (Count)
system.scheds29.power_state.pwrStateResidencyTicks::UNDEFINED     99999999                       # Cumulative time (in ticks) in various power states (Tick)
system.scheds3.readReqs                             0                       # Number of read requests received by the MemScheduler (Count)
system.scheds3.writeReqs                            0                       # Number of write requests received by the MemScheduler (Count)
system.scheds3.bankConflicts                        0                       # Number of bank conflicts (Count)
system.scheds3.failedArbitrations                   0                       # Number of times an arbitration failed to send a request to MemCtrl (Count)
system.scheds3.totalArbitrations                    0                       # Total number of arbitrations over the request queues in the MemScheduler (Count)
system.scheds3.totalRQDelay                         0                       # Total queueing delay read requests have experienced in the MemScheduler (Count)
system.scheds3.totalWQDelay                         0                       # Total queueing delay write requests have experienced in the MemScheduler (Count)
system.scheds3.totalRespDelay                       0                       # total queueing delay in the response queue experienced by the MemScheduler (Count)
system.scheds3.avgRQDelay                         nan                       # Average queueing delay read requests have experienced in the MemScheduler (Count)
system.scheds3.avgWQDelay                         nan                       # Average queueing delay write requests have experienced in the MemScheduler (Count)
system.scheds3.avgRespDelay                       nan                       # Average queueing delay in the response queue experienced by the MemScheduler (Count)
system.scheds3.power_state.pwrStateResidencyTicks::UNDEFINED     99999999                       # Cumulative time (in ticks) in various power states (Tick)
system.scheds30.readReqs                            0                       # Number of read requests received by the MemScheduler (Count)
system.scheds30.writeReqs                           0                       # Number of write requests received by the MemScheduler (Count)
system.scheds30.bankConflicts                       0                       # Number of bank conflicts (Count)
system.scheds30.failedArbitrations                  0                       # Number of times an arbitration failed to send a request to MemCtrl (Count)
system.scheds30.totalArbitrations                   0                       # Total number of arbitrations over the request queues in the MemScheduler (Count)
system.scheds30.totalRQDelay                        0                       # Total queueing delay read requests have experienced in the MemScheduler (Count)
system.scheds30.totalWQDelay                        0                       # Total queueing delay write requests have experienced in the MemScheduler (Count)
system.scheds30.totalRespDelay                      0                       # total queueing delay in the response queue experienced by the MemScheduler (Count)
system.scheds30.avgRQDelay                        nan                       # Average queueing delay read requests have experienced in the MemScheduler (Count)
system.scheds30.avgWQDelay                        nan                       # Average queueing delay write requests have experienced in the MemScheduler (Count)
system.scheds30.avgRespDelay                      nan                       # Average queueing delay in the response queue experienced by the MemScheduler (Count)
system.scheds30.power_state.pwrStateResidencyTicks::UNDEFINED     99999999                       # Cumulative time (in ticks) in various power states (Tick)
system.scheds31.readReqs                            0                       # Number of read requests received by the MemScheduler (Count)
system.scheds31.writeReqs                           0                       # Number of write requests received by the MemScheduler (Count)
system.scheds31.bankConflicts                       0                       # Number of bank conflicts (Count)
system.scheds31.failedArbitrations                  0                       # Number of times an arbitration failed to send a request to MemCtrl (Count)
system.scheds31.totalArbitrations                   0                       # Total number of arbitrations over the request queues in the MemScheduler (Count)
system.scheds31.totalRQDelay                        0                       # Total queueing delay read requests have experienced in the MemScheduler (Count)
system.scheds31.totalWQDelay                        0                       # Total queueing delay write requests have experienced in the MemScheduler (Count)
system.scheds31.totalRespDelay                      0                       # total queueing delay in the response queue experienced by the MemScheduler (Count)
system.scheds31.avgRQDelay                        nan                       # Average queueing delay read requests have experienced in the MemScheduler (Count)
system.scheds31.avgWQDelay                        nan                       # Average queueing delay write requests have experienced in the MemScheduler (Count)
system.scheds31.avgRespDelay                      nan                       # Average queueing delay in the response queue experienced by the MemScheduler (Count)
system.scheds31.power_state.pwrStateResidencyTicks::UNDEFINED     99999999                       # Cumulative time (in ticks) in various power states (Tick)
system.scheds4.readReqs                             0                       # Number of read requests received by the MemScheduler (Count)
system.scheds4.writeReqs                            0                       # Number of write requests received by the MemScheduler (Count)
system.scheds4.bankConflicts                        0                       # Number of bank conflicts (Count)
system.scheds4.failedArbitrations                   0                       # Number of times an arbitration failed to send a request to MemCtrl (Count)
system.scheds4.totalArbitrations                    0                       # Total number of arbitrations over the request queues in the MemScheduler (Count)
system.scheds4.totalRQDelay                         0                       # Total queueing delay read requests have experienced in the MemScheduler (Count)
system.scheds4.totalWQDelay                         0                       # Total queueing delay write requests have experienced in the MemScheduler (Count)
system.scheds4.totalRespDelay                       0                       # total queueing delay in the response queue experienced by the MemScheduler (Count)
system.scheds4.avgRQDelay                         nan                       # Average queueing delay read requests have experienced in the MemScheduler (Count)
system.scheds4.avgWQDelay                         nan                       # Average queueing delay write requests have experienced in the MemScheduler (Count)
system.scheds4.avgRespDelay                       nan                       # Average queueing delay in the response queue experienced by the MemScheduler (Count)
system.scheds4.power_state.pwrStateResidencyTicks::UNDEFINED     99999999                       # Cumulative time (in ticks) in various power states (Tick)
system.scheds5.readReqs                             0                       # Number of read requests received by the MemScheduler (Count)
system.scheds5.writeReqs                            0                       # Number of write requests received by the MemScheduler (Count)
system.scheds5.bankConflicts                        0                       # Number of bank conflicts (Count)
system.scheds5.failedArbitrations                   0                       # Number of times an arbitration failed to send a request to MemCtrl (Count)
system.scheds5.totalArbitrations                    0                       # Total number of arbitrations over the request queues in the MemScheduler (Count)
system.scheds5.totalRQDelay                         0                       # Total queueing delay read requests have experienced in the MemScheduler (Count)
system.scheds5.totalWQDelay                         0                       # Total queueing delay write requests have experienced in the MemScheduler (Count)
system.scheds5.totalRespDelay                       0                       # total queueing delay in the response queue experienced by the MemScheduler (Count)
system.scheds5.avgRQDelay                         nan                       # Average queueing delay read requests have experienced in the MemScheduler (Count)
system.scheds5.avgWQDelay                         nan                       # Average queueing delay write requests have experienced in the MemScheduler (Count)
system.scheds5.avgRespDelay                       nan                       # Average queueing delay in the response queue experienced by the MemScheduler (Count)
system.scheds5.power_state.pwrStateResidencyTicks::UNDEFINED     99999999                       # Cumulative time (in ticks) in various power states (Tick)
system.scheds6.readReqs                             0                       # Number of read requests received by the MemScheduler (Count)
system.scheds6.writeReqs                            0                       # Number of write requests received by the MemScheduler (Count)
system.scheds6.bankConflicts                        0                       # Number of bank conflicts (Count)
system.scheds6.failedArbitrations                   0                       # Number of times an arbitration failed to send a request to MemCtrl (Count)
system.scheds6.totalArbitrations                    0                       # Total number of arbitrations over the request queues in the MemScheduler (Count)
system.scheds6.totalRQDelay                         0                       # Total queueing delay read requests have experienced in the MemScheduler (Count)
system.scheds6.totalWQDelay                         0                       # Total queueing delay write requests have experienced in the MemScheduler (Count)
system.scheds6.totalRespDelay                       0                       # total queueing delay in the response queue experienced by the MemScheduler (Count)
system.scheds6.avgRQDelay                         nan                       # Average queueing delay read requests have experienced in the MemScheduler (Count)
system.scheds6.avgWQDelay                         nan                       # Average queueing delay write requests have experienced in the MemScheduler (Count)
system.scheds6.avgRespDelay                       nan                       # Average queueing delay in the response queue experienced by the MemScheduler (Count)
system.scheds6.power_state.pwrStateResidencyTicks::UNDEFINED     99999999                       # Cumulative time (in ticks) in various power states (Tick)
system.scheds7.readReqs                             0                       # Number of read requests received by the MemScheduler (Count)
system.scheds7.writeReqs                            0                       # Number of write requests received by the MemScheduler (Count)
system.scheds7.bankConflicts                        0                       # Number of bank conflicts (Count)
system.scheds7.failedArbitrations                   0                       # Number of times an arbitration failed to send a request to MemCtrl (Count)
system.scheds7.totalArbitrations                    0                       # Total number of arbitrations over the request queues in the MemScheduler (Count)
system.scheds7.totalRQDelay                         0                       # Total queueing delay read requests have experienced in the MemScheduler (Count)
system.scheds7.totalWQDelay                         0                       # Total queueing delay write requests have experienced in the MemScheduler (Count)
system.scheds7.totalRespDelay                       0                       # total queueing delay in the response queue experienced by the MemScheduler (Count)
system.scheds7.avgRQDelay                         nan                       # Average queueing delay read requests have experienced in the MemScheduler (Count)
system.scheds7.avgWQDelay                         nan                       # Average queueing delay write requests have experienced in the MemScheduler (Count)
system.scheds7.avgRespDelay                       nan                       # Average queueing delay in the response queue experienced by the MemScheduler (Count)
system.scheds7.power_state.pwrStateResidencyTicks::UNDEFINED     99999999                       # Cumulative time (in ticks) in various power states (Tick)
system.scheds8.readReqs                             0                       # Number of read requests received by the MemScheduler (Count)
system.scheds8.writeReqs                            0                       # Number of write requests received by the MemScheduler (Count)
system.scheds8.bankConflicts                        0                       # Number of bank conflicts (Count)
system.scheds8.failedArbitrations                   0                       # Number of times an arbitration failed to send a request to MemCtrl (Count)
system.scheds8.totalArbitrations                    0                       # Total number of arbitrations over the request queues in the MemScheduler (Count)
system.scheds8.totalRQDelay                         0                       # Total queueing delay read requests have experienced in the MemScheduler (Count)
system.scheds8.totalWQDelay                         0                       # Total queueing delay write requests have experienced in the MemScheduler (Count)
system.scheds8.totalRespDelay                       0                       # total queueing delay in the response queue experienced by the MemScheduler (Count)
system.scheds8.avgRQDelay                         nan                       # Average queueing delay read requests have experienced in the MemScheduler (Count)
system.scheds8.avgWQDelay                         nan                       # Average queueing delay write requests have experienced in the MemScheduler (Count)
system.scheds8.avgRespDelay                       nan                       # Average queueing delay in the response queue experienced by the MemScheduler (Count)
system.scheds8.power_state.pwrStateResidencyTicks::UNDEFINED     99999999                       # Cumulative time (in ticks) in various power states (Tick)
system.scheds9.readReqs                             0                       # Number of read requests received by the MemScheduler (Count)
system.scheds9.writeReqs                            0                       # Number of write requests received by the MemScheduler (Count)
system.scheds9.bankConflicts                        0                       # Number of bank conflicts (Count)
system.scheds9.failedArbitrations                   0                       # Number of times an arbitration failed to send a request to MemCtrl (Count)
system.scheds9.totalArbitrations                    0                       # Total number of arbitrations over the request queues in the MemScheduler (Count)
system.scheds9.totalRQDelay                         0                       # Total queueing delay read requests have experienced in the MemScheduler (Count)
system.scheds9.totalWQDelay                         0                       # Total queueing delay write requests have experienced in the MemScheduler (Count)
system.scheds9.totalRespDelay                       0                       # total queueing delay in the response queue experienced by the MemScheduler (Count)
system.scheds9.avgRQDelay                         nan                       # Average queueing delay read requests have experienced in the MemScheduler (Count)
system.scheds9.avgWQDelay                         nan                       # Average queueing delay write requests have experienced in the MemScheduler (Count)
system.scheds9.avgRespDelay                       nan                       # Average queueing delay in the response queue experienced by the MemScheduler (Count)
system.scheds9.power_state.pwrStateResidencyTicks::UNDEFINED     99999999                       # Cumulative time (in ticks) in various power states (Tick)
system.workload.inst.arm                            0                       # number of arm instructions executed (Count)
system.workload.inst.quiesce                        0                       # number of quiesce instructions executed (Count)

---------- End Simulation Statistics   ----------
