
---------- Begin Simulation Statistics ----------
simSeconds                                   0.000100                       # Number of seconds simulated (Second)
simTicks                                     99999999                       # Number of ticks simulated (Tick)
finalTick                                    99999999                       # Number of ticks from beginning of simulation (restored from checkpoints and never reset) (Tick)
simFreq                                  1000000000000                       # The number of ticks per simulated second ((Tick/Second))
hostSeconds                                      0.13                       # Real time elapsed on the host (Second)
hostTickRate                                755012637                       # The number of ticks simulated per host second (ticks/s) ((Tick/Second))
hostMemory                                    3520160                       # Number of bytes of host memory used (Byte)
system.clk_domain.clock                           200                       # Clock period in ticks (Tick)
system.clk_domain.voltage_domain.voltage            1                       # Voltage in Volts (Volt)
system.far_mem_ctrl.avgPriority_writebacks::samples      8382.00                       # Average QoS priority value for accepted requests (Count)
system.far_mem_ctrl.priorityMinLatency   0.000000317492                       # per QoS priority minimum request to response latency (Second)
system.far_mem_ctrl.priorityMaxLatency   0.000004464016                       # per QoS priority maximum request to response latency (Second)
system.far_mem_ctrl.numReadWriteTurnArounds            0                       # Number of turnarounds from READ to WRITE (Count)
system.far_mem_ctrl.numWriteReadTurnArounds            0                       # Number of turnarounds from WRITE to READ (Count)
system.far_mem_ctrl.numStayReadState            24668                       # Number of times bus staying in READ state (Count)
system.far_mem_ctrl.numStayWriteState               0                       # Number of times bus staying in WRITE state (Count)
system.far_mem_ctrl.readReqs                     8382                       # Number of read requests accepted (Count)
system.far_mem_ctrl.writeReqs                       0                       # Number of write requests accepted (Count)
system.far_mem_ctrl.readBursts                   8382                       # Number of controller read bursts, including those serviced by the write queue (Count)
system.far_mem_ctrl.writeBursts                     0                       # Number of controller write bursts, including those merged in the write queue (Count)
system.far_mem_ctrl.servicedByWrQ                   0                       # Number of controller read bursts serviced by the write queue (Count)
system.far_mem_ctrl.mergedWrBursts                  0                       # Number of controller write bursts merged with an existing one (Count)
system.far_mem_ctrl.neitherReadNorWriteReqs            0                       # Number of requests that are neither read nor write (Count)
system.far_mem_ctrl.avgRdQLen                   36.42                       # Average read queue length when enqueuing ((Count/Tick))
system.far_mem_ctrl.avgWrQLen                    0.00                       # Average write queue length when enqueuing ((Count/Tick))
system.far_mem_ctrl.numRdRetry                      0                       # Number of times read queue was full causing retry (Count)
system.far_mem_ctrl.numWrRetry                      0                       # Number of times write queue was full causing retry (Count)
system.far_mem_ctrl.readPktSize::0                  0                       # Read request sizes (log2) (Count)
system.far_mem_ctrl.readPktSize::1                  0                       # Read request sizes (log2) (Count)
system.far_mem_ctrl.readPktSize::2                  0                       # Read request sizes (log2) (Count)
system.far_mem_ctrl.readPktSize::3                  0                       # Read request sizes (log2) (Count)
system.far_mem_ctrl.readPktSize::4                  0                       # Read request sizes (log2) (Count)
system.far_mem_ctrl.readPktSize::5                  0                       # Read request sizes (log2) (Count)
system.far_mem_ctrl.readPktSize::6               8382                       # Read request sizes (log2) (Count)
system.far_mem_ctrl.writePktSize::0                 0                       # Write request sizes (log2) (Count)
system.far_mem_ctrl.writePktSize::1                 0                       # Write request sizes (log2) (Count)
system.far_mem_ctrl.writePktSize::2                 0                       # Write request sizes (log2) (Count)
system.far_mem_ctrl.writePktSize::3                 0                       # Write request sizes (log2) (Count)
system.far_mem_ctrl.writePktSize::4                 0                       # Write request sizes (log2) (Count)
system.far_mem_ctrl.writePktSize::5                 0                       # Write request sizes (log2) (Count)
system.far_mem_ctrl.writePktSize::6                 0                       # Write request sizes (log2) (Count)
system.far_mem_ctrl.rdQLenPdf::0                    1                       # What read queue length does an incoming req see (Count)
system.far_mem_ctrl.rdQLenPdf::1                    1                       # What read queue length does an incoming req see (Count)
system.far_mem_ctrl.rdQLenPdf::2                    1                       # What read queue length does an incoming req see (Count)
system.far_mem_ctrl.rdQLenPdf::3                    1                       # What read queue length does an incoming req see (Count)
system.far_mem_ctrl.rdQLenPdf::4                    1                       # What read queue length does an incoming req see (Count)
system.far_mem_ctrl.rdQLenPdf::5                    1                       # What read queue length does an incoming req see (Count)
system.far_mem_ctrl.rdQLenPdf::6                    1                       # What read queue length does an incoming req see (Count)
system.far_mem_ctrl.rdQLenPdf::7                    1                       # What read queue length does an incoming req see (Count)
system.far_mem_ctrl.rdQLenPdf::8                    1                       # What read queue length does an incoming req see (Count)
system.far_mem_ctrl.rdQLenPdf::9                    1                       # What read queue length does an incoming req see (Count)
system.far_mem_ctrl.rdQLenPdf::10                   1                       # What read queue length does an incoming req see (Count)
system.far_mem_ctrl.rdQLenPdf::11                   1                       # What read queue length does an incoming req see (Count)
system.far_mem_ctrl.rdQLenPdf::12                   1                       # What read queue length does an incoming req see (Count)
system.far_mem_ctrl.rdQLenPdf::13                   2                       # What read queue length does an incoming req see (Count)
system.far_mem_ctrl.rdQLenPdf::14                   3                       # What read queue length does an incoming req see (Count)
system.far_mem_ctrl.rdQLenPdf::15                   2                       # What read queue length does an incoming req see (Count)
system.far_mem_ctrl.rdQLenPdf::16                   5                       # What read queue length does an incoming req see (Count)
system.far_mem_ctrl.rdQLenPdf::17                   5                       # What read queue length does an incoming req see (Count)
system.far_mem_ctrl.rdQLenPdf::18                   9                       # What read queue length does an incoming req see (Count)
system.far_mem_ctrl.rdQLenPdf::19                  11                       # What read queue length does an incoming req see (Count)
system.far_mem_ctrl.rdQLenPdf::20                  13                       # What read queue length does an incoming req see (Count)
system.far_mem_ctrl.rdQLenPdf::21                  11                       # What read queue length does an incoming req see (Count)
system.far_mem_ctrl.rdQLenPdf::22                  24                       # What read queue length does an incoming req see (Count)
system.far_mem_ctrl.rdQLenPdf::23                  28                       # What read queue length does an incoming req see (Count)
system.far_mem_ctrl.rdQLenPdf::24                  34                       # What read queue length does an incoming req see (Count)
system.far_mem_ctrl.rdQLenPdf::25                  65                       # What read queue length does an incoming req see (Count)
system.far_mem_ctrl.rdQLenPdf::26                 106                       # What read queue length does an incoming req see (Count)
system.far_mem_ctrl.rdQLenPdf::27                 169                       # What read queue length does an incoming req see (Count)
system.far_mem_ctrl.rdQLenPdf::28                 190                       # What read queue length does an incoming req see (Count)
system.far_mem_ctrl.rdQLenPdf::29                 204                       # What read queue length does an incoming req see (Count)
system.far_mem_ctrl.rdQLenPdf::30                 237                       # What read queue length does an incoming req see (Count)
system.far_mem_ctrl.rdQLenPdf::31                 387                       # What read queue length does an incoming req see (Count)
system.far_mem_ctrl.rdQLenPdf::32                 573                       # What read queue length does an incoming req see (Count)
system.far_mem_ctrl.rdQLenPdf::33                 739                       # What read queue length does an incoming req see (Count)
system.far_mem_ctrl.rdQLenPdf::34                 795                       # What read queue length does an incoming req see (Count)
system.far_mem_ctrl.rdQLenPdf::35                 797                       # What read queue length does an incoming req see (Count)
system.far_mem_ctrl.rdQLenPdf::36                 749                       # What read queue length does an incoming req see (Count)
system.far_mem_ctrl.rdQLenPdf::37                 698                       # What read queue length does an incoming req see (Count)
system.far_mem_ctrl.rdQLenPdf::38                 631                       # What read queue length does an incoming req see (Count)
system.far_mem_ctrl.rdQLenPdf::39                 495                       # What read queue length does an incoming req see (Count)
system.far_mem_ctrl.rdQLenPdf::40                 388                       # What read queue length does an incoming req see (Count)
system.far_mem_ctrl.rdQLenPdf::41                 283                       # What read queue length does an incoming req see (Count)
system.far_mem_ctrl.rdQLenPdf::42                 251                       # What read queue length does an incoming req see (Count)
system.far_mem_ctrl.rdQLenPdf::43                 158                       # What read queue length does an incoming req see (Count)
system.far_mem_ctrl.rdQLenPdf::44                 109                       # What read queue length does an incoming req see (Count)
system.far_mem_ctrl.rdQLenPdf::45                  77                       # What read queue length does an incoming req see (Count)
system.far_mem_ctrl.rdQLenPdf::46                  73                       # What read queue length does an incoming req see (Count)
system.far_mem_ctrl.rdQLenPdf::47                  30                       # What read queue length does an incoming req see (Count)
system.far_mem_ctrl.rdQLenPdf::48                  16                       # What read queue length does an incoming req see (Count)
system.far_mem_ctrl.rdQLenPdf::49                   2                       # What read queue length does an incoming req see (Count)
system.far_mem_ctrl.rdQLenPdf::50                   0                       # What read queue length does an incoming req see (Count)
system.far_mem_ctrl.rdQLenPdf::51                   0                       # What read queue length does an incoming req see (Count)
system.far_mem_ctrl.rdQLenPdf::52                   0                       # What read queue length does an incoming req see (Count)
system.far_mem_ctrl.rdQLenPdf::53                   0                       # What read queue length does an incoming req see (Count)
system.far_mem_ctrl.rdQLenPdf::54                   0                       # What read queue length does an incoming req see (Count)
system.far_mem_ctrl.rdQLenPdf::55                   0                       # What read queue length does an incoming req see (Count)
system.far_mem_ctrl.rdQLenPdf::56                   0                       # What read queue length does an incoming req see (Count)
system.far_mem_ctrl.rdQLenPdf::57                   0                       # What read queue length does an incoming req see (Count)
system.far_mem_ctrl.rdQLenPdf::58                   0                       # What read queue length does an incoming req see (Count)
system.far_mem_ctrl.rdQLenPdf::59                   0                       # What read queue length does an incoming req see (Count)
system.far_mem_ctrl.rdQLenPdf::60                   0                       # What read queue length does an incoming req see (Count)
system.far_mem_ctrl.rdQLenPdf::61                   0                       # What read queue length does an incoming req see (Count)
system.far_mem_ctrl.rdQLenPdf::62                   0                       # What read queue length does an incoming req see (Count)
system.far_mem_ctrl.rdQLenPdf::63                   0                       # What read queue length does an incoming req see (Count)
system.far_mem_ctrl.rdQLenPdf::64                   0                       # What read queue length does an incoming req see (Count)
system.far_mem_ctrl.rdQLenPdf::65                   0                       # What read queue length does an incoming req see (Count)
system.far_mem_ctrl.rdQLenPdf::66                   0                       # What read queue length does an incoming req see (Count)
system.far_mem_ctrl.rdQLenPdf::67                   0                       # What read queue length does an incoming req see (Count)
system.far_mem_ctrl.rdQLenPdf::68                   0                       # What read queue length does an incoming req see (Count)
system.far_mem_ctrl.rdQLenPdf::69                   0                       # What read queue length does an incoming req see (Count)
system.far_mem_ctrl.rdQLenPdf::70                   0                       # What read queue length does an incoming req see (Count)
system.far_mem_ctrl.rdQLenPdf::71                   0                       # What read queue length does an incoming req see (Count)
system.far_mem_ctrl.rdQLenPdf::72                   0                       # What read queue length does an incoming req see (Count)
system.far_mem_ctrl.rdQLenPdf::73                   0                       # What read queue length does an incoming req see (Count)
system.far_mem_ctrl.rdQLenPdf::74                   0                       # What read queue length does an incoming req see (Count)
system.far_mem_ctrl.rdQLenPdf::75                   0                       # What read queue length does an incoming req see (Count)
system.far_mem_ctrl.rdQLenPdf::76                   0                       # What read queue length does an incoming req see (Count)
system.far_mem_ctrl.rdQLenPdf::77                   0                       # What read queue length does an incoming req see (Count)
system.far_mem_ctrl.rdQLenPdf::78                   0                       # What read queue length does an incoming req see (Count)
system.far_mem_ctrl.rdQLenPdf::79                   0                       # What read queue length does an incoming req see (Count)
system.far_mem_ctrl.rdQLenPdf::80                   0                       # What read queue length does an incoming req see (Count)
system.far_mem_ctrl.rdQLenPdf::81                   0                       # What read queue length does an incoming req see (Count)
system.far_mem_ctrl.rdQLenPdf::82                   0                       # What read queue length does an incoming req see (Count)
system.far_mem_ctrl.rdQLenPdf::83                   0                       # What read queue length does an incoming req see (Count)
system.far_mem_ctrl.rdQLenPdf::84                   0                       # What read queue length does an incoming req see (Count)
system.far_mem_ctrl.rdQLenPdf::85                   0                       # What read queue length does an incoming req see (Count)
system.far_mem_ctrl.rdQLenPdf::86                   0                       # What read queue length does an incoming req see (Count)
system.far_mem_ctrl.rdQLenPdf::87                   0                       # What read queue length does an incoming req see (Count)
system.far_mem_ctrl.rdQLenPdf::88                   0                       # What read queue length does an incoming req see (Count)
system.far_mem_ctrl.rdQLenPdf::89                   0                       # What read queue length does an incoming req see (Count)
system.far_mem_ctrl.rdQLenPdf::90                   0                       # What read queue length does an incoming req see (Count)
system.far_mem_ctrl.rdQLenPdf::91                   0                       # What read queue length does an incoming req see (Count)
system.far_mem_ctrl.rdQLenPdf::92                   0                       # What read queue length does an incoming req see (Count)
system.far_mem_ctrl.rdQLenPdf::93                   0                       # What read queue length does an incoming req see (Count)
system.far_mem_ctrl.rdQLenPdf::94                   0                       # What read queue length does an incoming req see (Count)
system.far_mem_ctrl.rdQLenPdf::95                   0                       # What read queue length does an incoming req see (Count)
system.far_mem_ctrl.rdQLenPdf::96                   0                       # What read queue length does an incoming req see (Count)
system.far_mem_ctrl.rdQLenPdf::97                   0                       # What read queue length does an incoming req see (Count)
system.far_mem_ctrl.rdQLenPdf::98                   0                       # What read queue length does an incoming req see (Count)
system.far_mem_ctrl.rdQLenPdf::99                   0                       # What read queue length does an incoming req see (Count)
system.far_mem_ctrl.rdQLenPdf::100                  0                       # What read queue length does an incoming req see (Count)
system.far_mem_ctrl.rdQLenPdf::101                  0                       # What read queue length does an incoming req see (Count)
system.far_mem_ctrl.rdQLenPdf::102                  0                       # What read queue length does an incoming req see (Count)
system.far_mem_ctrl.rdQLenPdf::103                  0                       # What read queue length does an incoming req see (Count)
system.far_mem_ctrl.rdQLenPdf::104                  0                       # What read queue length does an incoming req see (Count)
system.far_mem_ctrl.rdQLenPdf::105                  0                       # What read queue length does an incoming req see (Count)
system.far_mem_ctrl.rdQLenPdf::106                  0                       # What read queue length does an incoming req see (Count)
system.far_mem_ctrl.rdQLenPdf::107                  0                       # What read queue length does an incoming req see (Count)
system.far_mem_ctrl.rdQLenPdf::108                  0                       # What read queue length does an incoming req see (Count)
system.far_mem_ctrl.rdQLenPdf::109                  0                       # What read queue length does an incoming req see (Count)
system.far_mem_ctrl.rdQLenPdf::110                  0                       # What read queue length does an incoming req see (Count)
system.far_mem_ctrl.rdQLenPdf::111                  0                       # What read queue length does an incoming req see (Count)
system.far_mem_ctrl.rdQLenPdf::112                  0                       # What read queue length does an incoming req see (Count)
system.far_mem_ctrl.rdQLenPdf::113                  0                       # What read queue length does an incoming req see (Count)
system.far_mem_ctrl.rdQLenPdf::114                  0                       # What read queue length does an incoming req see (Count)
system.far_mem_ctrl.rdQLenPdf::115                  0                       # What read queue length does an incoming req see (Count)
system.far_mem_ctrl.rdQLenPdf::116                  0                       # What read queue length does an incoming req see (Count)
system.far_mem_ctrl.rdQLenPdf::117                  0                       # What read queue length does an incoming req see (Count)
system.far_mem_ctrl.rdQLenPdf::118                  0                       # What read queue length does an incoming req see (Count)
system.far_mem_ctrl.rdQLenPdf::119                  0                       # What read queue length does an incoming req see (Count)
system.far_mem_ctrl.rdQLenPdf::120                  0                       # What read queue length does an incoming req see (Count)
system.far_mem_ctrl.rdQLenPdf::121                  0                       # What read queue length does an incoming req see (Count)
system.far_mem_ctrl.rdQLenPdf::122                  0                       # What read queue length does an incoming req see (Count)
system.far_mem_ctrl.rdQLenPdf::123                  0                       # What read queue length does an incoming req see (Count)
system.far_mem_ctrl.rdQLenPdf::124                  0                       # What read queue length does an incoming req see (Count)
system.far_mem_ctrl.rdQLenPdf::125                  0                       # What read queue length does an incoming req see (Count)
system.far_mem_ctrl.rdQLenPdf::126                  0                       # What read queue length does an incoming req see (Count)
system.far_mem_ctrl.rdQLenPdf::127                  0                       # What read queue length does an incoming req see (Count)
system.far_mem_ctrl.wrQLenPdf::0                    0                       # What write queue length does an incoming req see (Count)
system.far_mem_ctrl.wrQLenPdf::1                    0                       # What write queue length does an incoming req see (Count)
system.far_mem_ctrl.wrQLenPdf::2                    0                       # What write queue length does an incoming req see (Count)
system.far_mem_ctrl.wrQLenPdf::3                    0                       # What write queue length does an incoming req see (Count)
system.far_mem_ctrl.wrQLenPdf::4                    0                       # What write queue length does an incoming req see (Count)
system.far_mem_ctrl.wrQLenPdf::5                    0                       # What write queue length does an incoming req see (Count)
system.far_mem_ctrl.wrQLenPdf::6                    0                       # What write queue length does an incoming req see (Count)
system.far_mem_ctrl.wrQLenPdf::7                    0                       # What write queue length does an incoming req see (Count)
system.far_mem_ctrl.wrQLenPdf::8                    0                       # What write queue length does an incoming req see (Count)
system.far_mem_ctrl.wrQLenPdf::9                    0                       # What write queue length does an incoming req see (Count)
system.far_mem_ctrl.wrQLenPdf::10                   0                       # What write queue length does an incoming req see (Count)
system.far_mem_ctrl.wrQLenPdf::11                   0                       # What write queue length does an incoming req see (Count)
system.far_mem_ctrl.wrQLenPdf::12                   0                       # What write queue length does an incoming req see (Count)
system.far_mem_ctrl.wrQLenPdf::13                   0                       # What write queue length does an incoming req see (Count)
system.far_mem_ctrl.wrQLenPdf::14                   0                       # What write queue length does an incoming req see (Count)
system.far_mem_ctrl.wrQLenPdf::15                   0                       # What write queue length does an incoming req see (Count)
system.far_mem_ctrl.wrQLenPdf::16                   0                       # What write queue length does an incoming req see (Count)
system.far_mem_ctrl.wrQLenPdf::17                   0                       # What write queue length does an incoming req see (Count)
system.far_mem_ctrl.wrQLenPdf::18                   0                       # What write queue length does an incoming req see (Count)
system.far_mem_ctrl.wrQLenPdf::19                   0                       # What write queue length does an incoming req see (Count)
system.far_mem_ctrl.wrQLenPdf::20                   0                       # What write queue length does an incoming req see (Count)
system.far_mem_ctrl.wrQLenPdf::21                   0                       # What write queue length does an incoming req see (Count)
system.far_mem_ctrl.wrQLenPdf::22                   0                       # What write queue length does an incoming req see (Count)
system.far_mem_ctrl.wrQLenPdf::23                   0                       # What write queue length does an incoming req see (Count)
system.far_mem_ctrl.wrQLenPdf::24                   0                       # What write queue length does an incoming req see (Count)
system.far_mem_ctrl.wrQLenPdf::25                   0                       # What write queue length does an incoming req see (Count)
system.far_mem_ctrl.wrQLenPdf::26                   0                       # What write queue length does an incoming req see (Count)
system.far_mem_ctrl.wrQLenPdf::27                   0                       # What write queue length does an incoming req see (Count)
system.far_mem_ctrl.wrQLenPdf::28                   0                       # What write queue length does an incoming req see (Count)
system.far_mem_ctrl.wrQLenPdf::29                   0                       # What write queue length does an incoming req see (Count)
system.far_mem_ctrl.wrQLenPdf::30                   0                       # What write queue length does an incoming req see (Count)
system.far_mem_ctrl.wrQLenPdf::31                   0                       # What write queue length does an incoming req see (Count)
system.far_mem_ctrl.wrQLenPdf::32                   0                       # What write queue length does an incoming req see (Count)
system.far_mem_ctrl.wrQLenPdf::33                   0                       # What write queue length does an incoming req see (Count)
system.far_mem_ctrl.wrQLenPdf::34                   0                       # What write queue length does an incoming req see (Count)
system.far_mem_ctrl.wrQLenPdf::35                   0                       # What write queue length does an incoming req see (Count)
system.far_mem_ctrl.wrQLenPdf::36                   0                       # What write queue length does an incoming req see (Count)
system.far_mem_ctrl.wrQLenPdf::37                   0                       # What write queue length does an incoming req see (Count)
system.far_mem_ctrl.wrQLenPdf::38                   0                       # What write queue length does an incoming req see (Count)
system.far_mem_ctrl.wrQLenPdf::39                   0                       # What write queue length does an incoming req see (Count)
system.far_mem_ctrl.wrQLenPdf::40                   0                       # What write queue length does an incoming req see (Count)
system.far_mem_ctrl.wrQLenPdf::41                   0                       # What write queue length does an incoming req see (Count)
system.far_mem_ctrl.wrQLenPdf::42                   0                       # What write queue length does an incoming req see (Count)
system.far_mem_ctrl.wrQLenPdf::43                   0                       # What write queue length does an incoming req see (Count)
system.far_mem_ctrl.wrQLenPdf::44                   0                       # What write queue length does an incoming req see (Count)
system.far_mem_ctrl.wrQLenPdf::45                   0                       # What write queue length does an incoming req see (Count)
system.far_mem_ctrl.wrQLenPdf::46                   0                       # What write queue length does an incoming req see (Count)
system.far_mem_ctrl.wrQLenPdf::47                   0                       # What write queue length does an incoming req see (Count)
system.far_mem_ctrl.wrQLenPdf::48                   0                       # What write queue length does an incoming req see (Count)
system.far_mem_ctrl.wrQLenPdf::49                   0                       # What write queue length does an incoming req see (Count)
system.far_mem_ctrl.wrQLenPdf::50                   0                       # What write queue length does an incoming req see (Count)
system.far_mem_ctrl.wrQLenPdf::51                   0                       # What write queue length does an incoming req see (Count)
system.far_mem_ctrl.wrQLenPdf::52                   0                       # What write queue length does an incoming req see (Count)
system.far_mem_ctrl.wrQLenPdf::53                   0                       # What write queue length does an incoming req see (Count)
system.far_mem_ctrl.wrQLenPdf::54                   0                       # What write queue length does an incoming req see (Count)
system.far_mem_ctrl.wrQLenPdf::55                   0                       # What write queue length does an incoming req see (Count)
system.far_mem_ctrl.wrQLenPdf::56                   0                       # What write queue length does an incoming req see (Count)
system.far_mem_ctrl.wrQLenPdf::57                   0                       # What write queue length does an incoming req see (Count)
system.far_mem_ctrl.wrQLenPdf::58                   0                       # What write queue length does an incoming req see (Count)
system.far_mem_ctrl.wrQLenPdf::59                   0                       # What write queue length does an incoming req see (Count)
system.far_mem_ctrl.wrQLenPdf::60                   0                       # What write queue length does an incoming req see (Count)
system.far_mem_ctrl.wrQLenPdf::61                   0                       # What write queue length does an incoming req see (Count)
system.far_mem_ctrl.wrQLenPdf::62                   0                       # What write queue length does an incoming req see (Count)
system.far_mem_ctrl.wrQLenPdf::63                   0                       # What write queue length does an incoming req see (Count)
system.far_mem_ctrl.wrQLenPdf::64                   0                       # What write queue length does an incoming req see (Count)
system.far_mem_ctrl.wrQLenPdf::65                   0                       # What write queue length does an incoming req see (Count)
system.far_mem_ctrl.wrQLenPdf::66                   0                       # What write queue length does an incoming req see (Count)
system.far_mem_ctrl.wrQLenPdf::67                   0                       # What write queue length does an incoming req see (Count)
system.far_mem_ctrl.wrQLenPdf::68                   0                       # What write queue length does an incoming req see (Count)
system.far_mem_ctrl.wrQLenPdf::69                   0                       # What write queue length does an incoming req see (Count)
system.far_mem_ctrl.wrQLenPdf::70                   0                       # What write queue length does an incoming req see (Count)
system.far_mem_ctrl.wrQLenPdf::71                   0                       # What write queue length does an incoming req see (Count)
system.far_mem_ctrl.wrQLenPdf::72                   0                       # What write queue length does an incoming req see (Count)
system.far_mem_ctrl.wrQLenPdf::73                   0                       # What write queue length does an incoming req see (Count)
system.far_mem_ctrl.wrQLenPdf::74                   0                       # What write queue length does an incoming req see (Count)
system.far_mem_ctrl.wrQLenPdf::75                   0                       # What write queue length does an incoming req see (Count)
system.far_mem_ctrl.wrQLenPdf::76                   0                       # What write queue length does an incoming req see (Count)
system.far_mem_ctrl.wrQLenPdf::77                   0                       # What write queue length does an incoming req see (Count)
system.far_mem_ctrl.wrQLenPdf::78                   0                       # What write queue length does an incoming req see (Count)
system.far_mem_ctrl.wrQLenPdf::79                   0                       # What write queue length does an incoming req see (Count)
system.far_mem_ctrl.wrQLenPdf::80                   0                       # What write queue length does an incoming req see (Count)
system.far_mem_ctrl.wrQLenPdf::81                   0                       # What write queue length does an incoming req see (Count)
system.far_mem_ctrl.wrQLenPdf::82                   0                       # What write queue length does an incoming req see (Count)
system.far_mem_ctrl.wrQLenPdf::83                   0                       # What write queue length does an incoming req see (Count)
system.far_mem_ctrl.wrQLenPdf::84                   0                       # What write queue length does an incoming req see (Count)
system.far_mem_ctrl.wrQLenPdf::85                   0                       # What write queue length does an incoming req see (Count)
system.far_mem_ctrl.wrQLenPdf::86                   0                       # What write queue length does an incoming req see (Count)
system.far_mem_ctrl.wrQLenPdf::87                   0                       # What write queue length does an incoming req see (Count)
system.far_mem_ctrl.wrQLenPdf::88                   0                       # What write queue length does an incoming req see (Count)
system.far_mem_ctrl.wrQLenPdf::89                   0                       # What write queue length does an incoming req see (Count)
system.far_mem_ctrl.wrQLenPdf::90                   0                       # What write queue length does an incoming req see (Count)
system.far_mem_ctrl.wrQLenPdf::91                   0                       # What write queue length does an incoming req see (Count)
system.far_mem_ctrl.wrQLenPdf::92                   0                       # What write queue length does an incoming req see (Count)
system.far_mem_ctrl.wrQLenPdf::93                   0                       # What write queue length does an incoming req see (Count)
system.far_mem_ctrl.wrQLenPdf::94                   0                       # What write queue length does an incoming req see (Count)
system.far_mem_ctrl.wrQLenPdf::95                   0                       # What write queue length does an incoming req see (Count)
system.far_mem_ctrl.wrQLenPdf::96                   0                       # What write queue length does an incoming req see (Count)
system.far_mem_ctrl.wrQLenPdf::97                   0                       # What write queue length does an incoming req see (Count)
system.far_mem_ctrl.wrQLenPdf::98                   0                       # What write queue length does an incoming req see (Count)
system.far_mem_ctrl.wrQLenPdf::99                   0                       # What write queue length does an incoming req see (Count)
system.far_mem_ctrl.wrQLenPdf::100                  0                       # What write queue length does an incoming req see (Count)
system.far_mem_ctrl.wrQLenPdf::101                  0                       # What write queue length does an incoming req see (Count)
system.far_mem_ctrl.wrQLenPdf::102                  0                       # What write queue length does an incoming req see (Count)
system.far_mem_ctrl.wrQLenPdf::103                  0                       # What write queue length does an incoming req see (Count)
system.far_mem_ctrl.wrQLenPdf::104                  0                       # What write queue length does an incoming req see (Count)
system.far_mem_ctrl.wrQLenPdf::105                  0                       # What write queue length does an incoming req see (Count)
system.far_mem_ctrl.wrQLenPdf::106                  0                       # What write queue length does an incoming req see (Count)
system.far_mem_ctrl.wrQLenPdf::107                  0                       # What write queue length does an incoming req see (Count)
system.far_mem_ctrl.wrQLenPdf::108                  0                       # What write queue length does an incoming req see (Count)
system.far_mem_ctrl.wrQLenPdf::109                  0                       # What write queue length does an incoming req see (Count)
system.far_mem_ctrl.wrQLenPdf::110                  0                       # What write queue length does an incoming req see (Count)
system.far_mem_ctrl.wrQLenPdf::111                  0                       # What write queue length does an incoming req see (Count)
system.far_mem_ctrl.wrQLenPdf::112                  0                       # What write queue length does an incoming req see (Count)
system.far_mem_ctrl.wrQLenPdf::113                  0                       # What write queue length does an incoming req see (Count)
system.far_mem_ctrl.wrQLenPdf::114                  0                       # What write queue length does an incoming req see (Count)
system.far_mem_ctrl.wrQLenPdf::115                  0                       # What write queue length does an incoming req see (Count)
system.far_mem_ctrl.wrQLenPdf::116                  0                       # What write queue length does an incoming req see (Count)
system.far_mem_ctrl.wrQLenPdf::117                  0                       # What write queue length does an incoming req see (Count)
system.far_mem_ctrl.wrQLenPdf::118                  0                       # What write queue length does an incoming req see (Count)
system.far_mem_ctrl.wrQLenPdf::119                  0                       # What write queue length does an incoming req see (Count)
system.far_mem_ctrl.wrQLenPdf::120                  0                       # What write queue length does an incoming req see (Count)
system.far_mem_ctrl.wrQLenPdf::121                  0                       # What write queue length does an incoming req see (Count)
system.far_mem_ctrl.wrQLenPdf::122                  0                       # What write queue length does an incoming req see (Count)
system.far_mem_ctrl.wrQLenPdf::123                  0                       # What write queue length does an incoming req see (Count)
system.far_mem_ctrl.wrQLenPdf::124                  0                       # What write queue length does an incoming req see (Count)
system.far_mem_ctrl.wrQLenPdf::125                  0                       # What write queue length does an incoming req see (Count)
system.far_mem_ctrl.wrQLenPdf::126                  0                       # What write queue length does an incoming req see (Count)
system.far_mem_ctrl.wrQLenPdf::127                  0                       # What write queue length does an incoming req see (Count)
system.far_mem_ctrl.bytesReadWrQ                    0                       # Total number of bytes read from write queue (Byte)
system.far_mem_ctrl.bytesReadSys               536448                       # Total read bytes from the system interface side (Byte)
system.far_mem_ctrl.bytesWrittenSys                 0                       # Total written bytes from the system interface side (Byte)
system.far_mem_ctrl.avgRdBWSys           5364480053.64480114                       # Average system read bandwidth in Byte/s ((Byte/Second))
system.far_mem_ctrl.avgWrBWSys             0.00000000                       # Average system write bandwidth in Byte/s ((Byte/Second))
system.far_mem_ctrl.totGap                   99934400                       # Total gap between requests (Tick)
system.far_mem_ctrl.avgGap                   11922.50                       # Average gap between requests ((Tick/Count))
system.far_mem_ctrl.requestorReadBytes::writebacks       534400                       # Per-requestor bytes read from memory (Byte)
system.far_mem_ctrl.requestorReadRate::writebacks 5344000053.440000534058                       # Per-requestor bytes read from memory rate ((Byte/Second))
system.far_mem_ctrl.requestorReadAccesses::writebacks         8382                       # Per-requestor read serviced memory accesses (Count)
system.far_mem_ctrl.requestorReadTotalLat::writebacks   3544241347                       # Per-requestor read total memory access latency (Tick)
system.far_mem_ctrl.requestorReadAvgLat::writebacks    422839.58                       # Per-requestor read average memory access latency ((Tick/Count))
system.far_mem_ctrl.dram.bytesRead::writebacks       534336                       # Number of bytes read from this memory (Byte)
system.far_mem_ctrl.dram.bytesRead::total       534336                       # Number of bytes read from this memory (Byte)
system.far_mem_ctrl.dram.numReads::writebacks         8349                       # Number of read requests responded to by this memory (Count)
system.far_mem_ctrl.dram.numReads::total         8349                       # Number of read requests responded to by this memory (Count)
system.far_mem_ctrl.dram.bwRead::writebacks   5343360053                       # Total read bandwidth from this memory ((Byte/Second))
system.far_mem_ctrl.dram.bwRead::total     5343360053                       # Total read bandwidth from this memory ((Byte/Second))
system.far_mem_ctrl.dram.bwTotal::writebacks   5343360053                       # Total bandwidth to/from this memory ((Byte/Second))
system.far_mem_ctrl.dram.bwTotal::total    5343360053                       # Total bandwidth to/from this memory ((Byte/Second))
system.far_mem_ctrl.dram.readBursts              8350                       # Number of NVM read bursts (Count)
system.far_mem_ctrl.dram.writeBursts                0                       # Number of NVM write bursts (Count)
system.far_mem_ctrl.dram.perBankRdBursts::0          545                       # Per bank write bursts (Count)
system.far_mem_ctrl.dram.perBankRdBursts::1          514                       # Per bank write bursts (Count)
system.far_mem_ctrl.dram.perBankRdBursts::2          541                       # Per bank write bursts (Count)
system.far_mem_ctrl.dram.perBankRdBursts::3          533                       # Per bank write bursts (Count)
system.far_mem_ctrl.dram.perBankRdBursts::4          499                       # Per bank write bursts (Count)
system.far_mem_ctrl.dram.perBankRdBursts::5          462                       # Per bank write bursts (Count)
system.far_mem_ctrl.dram.perBankRdBursts::6          548                       # Per bank write bursts (Count)
system.far_mem_ctrl.dram.perBankRdBursts::7          532                       # Per bank write bursts (Count)
system.far_mem_ctrl.dram.perBankRdBursts::8          524                       # Per bank write bursts (Count)
system.far_mem_ctrl.dram.perBankRdBursts::9          494                       # Per bank write bursts (Count)
system.far_mem_ctrl.dram.perBankRdBursts::10          531                       # Per bank write bursts (Count)
system.far_mem_ctrl.dram.perBankRdBursts::11          521                       # Per bank write bursts (Count)
system.far_mem_ctrl.dram.perBankRdBursts::12          493                       # Per bank write bursts (Count)
system.far_mem_ctrl.dram.perBankRdBursts::13          554                       # Per bank write bursts (Count)
system.far_mem_ctrl.dram.perBankRdBursts::14          550                       # Per bank write bursts (Count)
system.far_mem_ctrl.dram.perBankRdBursts::15          509                       # Per bank write bursts (Count)
system.far_mem_ctrl.dram.perBankWrBursts::0            0                       # Per bank write bursts (Count)
system.far_mem_ctrl.dram.perBankWrBursts::1            0                       # Per bank write bursts (Count)
system.far_mem_ctrl.dram.perBankWrBursts::2            0                       # Per bank write bursts (Count)
system.far_mem_ctrl.dram.perBankWrBursts::3            0                       # Per bank write bursts (Count)
system.far_mem_ctrl.dram.perBankWrBursts::4            0                       # Per bank write bursts (Count)
system.far_mem_ctrl.dram.perBankWrBursts::5            0                       # Per bank write bursts (Count)
system.far_mem_ctrl.dram.perBankWrBursts::6            0                       # Per bank write bursts (Count)
system.far_mem_ctrl.dram.perBankWrBursts::7            0                       # Per bank write bursts (Count)
system.far_mem_ctrl.dram.perBankWrBursts::8            0                       # Per bank write bursts (Count)
system.far_mem_ctrl.dram.perBankWrBursts::9            0                       # Per bank write bursts (Count)
system.far_mem_ctrl.dram.perBankWrBursts::10            0                       # Per bank write bursts (Count)
system.far_mem_ctrl.dram.perBankWrBursts::11            0                       # Per bank write bursts (Count)
system.far_mem_ctrl.dram.perBankWrBursts::12            0                       # Per bank write bursts (Count)
system.far_mem_ctrl.dram.perBankWrBursts::13            0                       # Per bank write bursts (Count)
system.far_mem_ctrl.dram.perBankWrBursts::14            0                       # Per bank write bursts (Count)
system.far_mem_ctrl.dram.perBankWrBursts::15            0                       # Per bank write bursts (Count)
system.far_mem_ctrl.dram.totQLat           3398183147                       # Total ticks spent queuing (Tick)
system.far_mem_ctrl.dram.totBusLat           27822200                       # Total ticks spent in databus transfers (Tick)
system.far_mem_ctrl.dram.totMemAccLat      3544241347                       # Total ticks spent from burst creation until serviced by the NVM (Tick)
system.far_mem_ctrl.dram.avgQLat            406968.04                       # Average queueing delay per NVM burst ((Tick/Count))
system.far_mem_ctrl.dram.avgBusLat            3332.00                       # Average bus latency per NVM burst ((Tick/Count))
system.far_mem_ctrl.dram.avgMemAccLat       424460.04                       # Average memory access latency per NVM burst ((Tick/Count))
system.far_mem_ctrl.dram.avgRdBW              5344.00                       # Average DRAM read bandwidth in MiBytes/s ((Byte/Second))
system.far_mem_ctrl.dram.avgWrBW                 0.00                       # Average DRAM write bandwidth in MiBytes/s ((Byte/Second))
system.far_mem_ctrl.dram.peakBW              19207.00                       # Theoretical peak bandwidth in MiByte/s ((Byte/Second))
system.far_mem_ctrl.dram.busUtil                27.82                       # NVM Data bus utilization in percentage (Ratio)
system.far_mem_ctrl.dram.busUtilRead            27.82                       # NVM Data bus read utilization in percentage (Ratio)
system.far_mem_ctrl.dram.busUtilWrite            0.00                       # NVM Data bus write utilization in percentage (Ratio)
system.far_mem_ctrl.dram.pendingReads::samples         8350                       # Reads issued to NVM for which data has not been transferred (Count)
system.far_mem_ctrl.dram.pendingReads::mean    33.694012                       # Reads issued to NVM for which data has not been transferred (Count)
system.far_mem_ctrl.dram.pendingReads::gmean    33.358166                       # Reads issued to NVM for which data has not been transferred (Count)
system.far_mem_ctrl.dram.pendingReads::stdev     4.621566                       # Reads issued to NVM for which data has not been transferred (Count)
system.far_mem_ctrl.dram.pendingReads::12            3      0.04%      0.04% # Reads issued to NVM for which data has not been transferred (Count)
system.far_mem_ctrl.dram.pendingReads::14            1      0.01%      0.05% # Reads issued to NVM for which data has not been transferred (Count)
system.far_mem_ctrl.dram.pendingReads::15            1      0.01%      0.06% # Reads issued to NVM for which data has not been transferred (Count)
system.far_mem_ctrl.dram.pendingReads::16            5      0.06%      0.12% # Reads issued to NVM for which data has not been transferred (Count)
system.far_mem_ctrl.dram.pendingReads::17           10      0.12%      0.24% # Reads issued to NVM for which data has not been transferred (Count)
system.far_mem_ctrl.dram.pendingReads::18           13      0.16%      0.40% # Reads issued to NVM for which data has not been transferred (Count)
system.far_mem_ctrl.dram.pendingReads::19            9      0.11%      0.50% # Reads issued to NVM for which data has not been transferred (Count)
system.far_mem_ctrl.dram.pendingReads::20           14      0.17%      0.67% # Reads issued to NVM for which data has not been transferred (Count)
system.far_mem_ctrl.dram.pendingReads::21           27      0.32%      0.99% # Reads issued to NVM for which data has not been transferred (Count)
system.far_mem_ctrl.dram.pendingReads::22           29      0.35%      1.34% # Reads issued to NVM for which data has not been transferred (Count)
system.far_mem_ctrl.dram.pendingReads::23           45      0.54%      1.88% # Reads issued to NVM for which data has not been transferred (Count)
system.far_mem_ctrl.dram.pendingReads::24           88      1.05%      2.93% # Reads issued to NVM for which data has not been transferred (Count)
system.far_mem_ctrl.dram.pendingReads::25          143      1.71%      4.65% # Reads issued to NVM for which data has not been transferred (Count)
system.far_mem_ctrl.dram.pendingReads::26          162      1.94%      6.59% # Reads issued to NVM for which data has not been transferred (Count)
system.far_mem_ctrl.dram.pendingReads::27          201      2.41%      8.99% # Reads issued to NVM for which data has not been transferred (Count)
system.far_mem_ctrl.dram.pendingReads::28          213      2.55%     11.54% # Reads issued to NVM for which data has not been transferred (Count)
system.far_mem_ctrl.dram.pendingReads::29          326      3.90%     15.45% # Reads issued to NVM for which data has not been transferred (Count)
system.far_mem_ctrl.dram.pendingReads::30          477      5.71%     21.16% # Reads issued to NVM for which data has not been transferred (Count)
system.far_mem_ctrl.dram.pendingReads::31          666      7.98%     29.14% # Reads issued to NVM for which data has not been transferred (Count)
system.far_mem_ctrl.dram.pendingReads::32          774      9.27%     38.41% # Reads issued to NVM for which data has not been transferred (Count)
system.far_mem_ctrl.dram.pendingReads::33          834      9.99%     48.40% # Reads issued to NVM for which data has not been transferred (Count)
system.far_mem_ctrl.dram.pendingReads::34          748      8.96%     57.35% # Reads issued to NVM for which data has not been transferred (Count)
system.far_mem_ctrl.dram.pendingReads::35          717      8.59%     65.94% # Reads issued to NVM for which data has not been transferred (Count)
system.far_mem_ctrl.dram.pendingReads::36          680      8.14%     74.08% # Reads issued to NVM for which data has not been transferred (Count)
system.far_mem_ctrl.dram.pendingReads::37          571      6.84%     80.92% # Reads issued to NVM for which data has not been transferred (Count)
system.far_mem_ctrl.dram.pendingReads::38          430      5.15%     86.07% # Reads issued to NVM for which data has not been transferred (Count)
system.far_mem_ctrl.dram.pendingReads::39          321      3.84%     89.92% # Reads issued to NVM for which data has not been transferred (Count)
system.far_mem_ctrl.dram.pendingReads::40          279      3.34%     93.26% # Reads issued to NVM for which data has not been transferred (Count)
system.far_mem_ctrl.dram.pendingReads::41          186      2.23%     95.49% # Reads issued to NVM for which data has not been transferred (Count)
system.far_mem_ctrl.dram.pendingReads::42          138      1.65%     97.14% # Reads issued to NVM for which data has not been transferred (Count)
system.far_mem_ctrl.dram.pendingReads::43           87      1.04%     98.18% # Reads issued to NVM for which data has not been transferred (Count)
system.far_mem_ctrl.dram.pendingReads::44           76      0.91%     99.09% # Reads issued to NVM for which data has not been transferred (Count)
system.far_mem_ctrl.dram.pendingReads::45           46      0.55%     99.64% # Reads issued to NVM for which data has not been transferred (Count)
system.far_mem_ctrl.dram.pendingReads::46           25      0.30%     99.94% # Reads issued to NVM for which data has not been transferred (Count)
system.far_mem_ctrl.dram.pendingReads::47            5      0.06%    100.00% # Reads issued to NVM for which data has not been transferred (Count)
system.far_mem_ctrl.dram.pendingReads::total         8350                       # Reads issued to NVM for which data has not been transferred (Count)
system.far_mem_ctrl.dram.bytesPerBank::samples         8382                       # Bytes read within a bank before loading new bank (Byte)
system.far_mem_ctrl.dram.bytesPerBank::mean           64                       # Bytes read within a bank before loading new bank (Byte)
system.far_mem_ctrl.dram.bytesPerBank::gmean    64.000000                       # Bytes read within a bank before loading new bank (Byte)
system.far_mem_ctrl.dram.bytesPerBank::64         8382    100.00%    100.00% # Bytes read within a bank before loading new bank (Byte)
system.far_mem_ctrl.dram.bytesPerBank::total         8382                       # Bytes read within a bank before loading new bank (Byte)
system.far_mem_ctrl.dram.power_state.pwrStateResidencyTicks::UNDEFINED     99999999                       # Cumulative time (in ticks) in various power states (Tick)
system.far_mem_ctrl.power_state.pwrStateResidencyTicks::UNDEFINED     99999999                       # Cumulative time (in ticks) in various power states (Tick)
system.generators.numSuppressed                     0                       # Number of suppressed packets to non-memory space (Count)
system.generators.numPackets                     8389                       # Number of packets generated (Count)
system.generators.numRetries                        0                       # Number of retries (Count)
system.generators.retryTicks                        0                       # Time spent waiting due to back-pressure (Tick)
system.generators.bytesRead                    533888                       # Number of bytes read (Byte)
system.generators.bytesWritten                      0                       # Number of bytes written (Byte)
system.generators.totalReadLatency         4577474720                       # Total latency of read requests (Tick)
system.generators.totalWriteLatency                 0                       # Total latency of write requests (Tick)
system.generators.totalReads                     8342                       # Total num of reads (Count)
system.generators.totalWrites                       0                       # Total num of writes (Count)
system.generators.avgReadLatency         548726.291057                       # Avg latency of read requests ((Tick/Count))
system.generators.avgWriteLatency                 nan                       # Avg latency of write requests ((Tick/Count))
system.generators.readBW                 5338880053.388801                       # Read bandwidth ((Byte/Second))
system.generators.writeBW                           0                       # Write bandwidth ((Byte/Second))
system.generators.power_state.pwrStateResidencyTicks::UNDEFINED     99999999                       # Cumulative time (in ticks) in various power states (Tick)
system.loc_mem_ctrlrs0.avgPriority_writebacks::samples       565.00                       # Average QoS priority value for accepted requests (Count)
system.loc_mem_ctrlrs0.priorityMinLatency 0.000000029000                       # per QoS priority minimum request to response latency (Second)
system.loc_mem_ctrlrs0.priorityMaxLatency 0.000028454200                       # per QoS priority maximum request to response latency (Second)
system.loc_mem_ctrlrs0.numReadWriteTurnArounds           15                       # Number of turnarounds from READ to WRITE (Count)
system.loc_mem_ctrlrs0.numWriteReadTurnArounds           15                       # Number of turnarounds from WRITE to READ (Count)
system.loc_mem_ctrlrs0.numStayReadState           826                       # Number of times bus staying in READ state (Count)
system.loc_mem_ctrlrs0.numStayWriteState          249                       # Number of times bus staying in WRITE state (Count)
system.loc_mem_ctrlrs0.readReqs                   283                       # Number of read requests accepted (Count)
system.loc_mem_ctrlrs0.writeReqs                  282                       # Number of write requests accepted (Count)
system.loc_mem_ctrlrs0.readBursts                 283                       # Number of controller read bursts, including those serviced by the write queue (Count)
system.loc_mem_ctrlrs0.writeBursts                282                       # Number of controller write bursts, including those merged in the write queue (Count)
system.loc_mem_ctrlrs0.servicedByWrQ                0                       # Number of controller read bursts serviced by the write queue (Count)
system.loc_mem_ctrlrs0.mergedWrBursts               0                       # Number of controller write bursts merged with an existing one (Count)
system.loc_mem_ctrlrs0.neitherReadNorWriteReqs            0                       # Number of requests that are neither read nor write (Count)
system.loc_mem_ctrlrs0.avgRdQLen                 1.15                       # Average read queue length when enqueuing ((Count/Tick))
system.loc_mem_ctrlrs0.avgWrQLen                24.10                       # Average write queue length when enqueuing ((Count/Tick))
system.loc_mem_ctrlrs0.numRdRetry                   0                       # Number of times read queue was full causing retry (Count)
system.loc_mem_ctrlrs0.numWrRetry                   0                       # Number of times write queue was full causing retry (Count)
system.loc_mem_ctrlrs0.readPktSize::0               0                       # Read request sizes (log2) (Count)
system.loc_mem_ctrlrs0.readPktSize::1               0                       # Read request sizes (log2) (Count)
system.loc_mem_ctrlrs0.readPktSize::2               0                       # Read request sizes (log2) (Count)
system.loc_mem_ctrlrs0.readPktSize::3               0                       # Read request sizes (log2) (Count)
system.loc_mem_ctrlrs0.readPktSize::4               0                       # Read request sizes (log2) (Count)
system.loc_mem_ctrlrs0.readPktSize::5               0                       # Read request sizes (log2) (Count)
system.loc_mem_ctrlrs0.readPktSize::6             283                       # Read request sizes (log2) (Count)
system.loc_mem_ctrlrs0.writePktSize::0              0                       # Write request sizes (log2) (Count)
system.loc_mem_ctrlrs0.writePktSize::1              0                       # Write request sizes (log2) (Count)
system.loc_mem_ctrlrs0.writePktSize::2              0                       # Write request sizes (log2) (Count)
system.loc_mem_ctrlrs0.writePktSize::3              0                       # Write request sizes (log2) (Count)
system.loc_mem_ctrlrs0.writePktSize::4              0                       # Write request sizes (log2) (Count)
system.loc_mem_ctrlrs0.writePktSize::5              0                       # Write request sizes (log2) (Count)
system.loc_mem_ctrlrs0.writePktSize::6            282                       # Write request sizes (log2) (Count)
system.loc_mem_ctrlrs0.rdQLenPdf::0               250                       # What read queue length does an incoming req see (Count)
system.loc_mem_ctrlrs0.rdQLenPdf::1                27                       # What read queue length does an incoming req see (Count)
system.loc_mem_ctrlrs0.rdQLenPdf::2                 6                       # What read queue length does an incoming req see (Count)
system.loc_mem_ctrlrs0.rdQLenPdf::3                 0                       # What read queue length does an incoming req see (Count)
system.loc_mem_ctrlrs0.rdQLenPdf::4                 0                       # What read queue length does an incoming req see (Count)
system.loc_mem_ctrlrs0.rdQLenPdf::5                 0                       # What read queue length does an incoming req see (Count)
system.loc_mem_ctrlrs0.rdQLenPdf::6                 0                       # What read queue length does an incoming req see (Count)
system.loc_mem_ctrlrs0.rdQLenPdf::7                 0                       # What read queue length does an incoming req see (Count)
system.loc_mem_ctrlrs0.rdQLenPdf::8                 0                       # What read queue length does an incoming req see (Count)
system.loc_mem_ctrlrs0.rdQLenPdf::9                 0                       # What read queue length does an incoming req see (Count)
system.loc_mem_ctrlrs0.rdQLenPdf::10                0                       # What read queue length does an incoming req see (Count)
system.loc_mem_ctrlrs0.rdQLenPdf::11                0                       # What read queue length does an incoming req see (Count)
system.loc_mem_ctrlrs0.rdQLenPdf::12                0                       # What read queue length does an incoming req see (Count)
system.loc_mem_ctrlrs0.rdQLenPdf::13                0                       # What read queue length does an incoming req see (Count)
system.loc_mem_ctrlrs0.rdQLenPdf::14                0                       # What read queue length does an incoming req see (Count)
system.loc_mem_ctrlrs0.rdQLenPdf::15                0                       # What read queue length does an incoming req see (Count)
system.loc_mem_ctrlrs0.rdQLenPdf::16                0                       # What read queue length does an incoming req see (Count)
system.loc_mem_ctrlrs0.rdQLenPdf::17                0                       # What read queue length does an incoming req see (Count)
system.loc_mem_ctrlrs0.rdQLenPdf::18                0                       # What read queue length does an incoming req see (Count)
system.loc_mem_ctrlrs0.rdQLenPdf::19                0                       # What read queue length does an incoming req see (Count)
system.loc_mem_ctrlrs0.rdQLenPdf::20                0                       # What read queue length does an incoming req see (Count)
system.loc_mem_ctrlrs0.rdQLenPdf::21                0                       # What read queue length does an incoming req see (Count)
system.loc_mem_ctrlrs0.rdQLenPdf::22                0                       # What read queue length does an incoming req see (Count)
system.loc_mem_ctrlrs0.rdQLenPdf::23                0                       # What read queue length does an incoming req see (Count)
system.loc_mem_ctrlrs0.rdQLenPdf::24                0                       # What read queue length does an incoming req see (Count)
system.loc_mem_ctrlrs0.rdQLenPdf::25                0                       # What read queue length does an incoming req see (Count)
system.loc_mem_ctrlrs0.rdQLenPdf::26                0                       # What read queue length does an incoming req see (Count)
system.loc_mem_ctrlrs0.rdQLenPdf::27                0                       # What read queue length does an incoming req see (Count)
system.loc_mem_ctrlrs0.rdQLenPdf::28                0                       # What read queue length does an incoming req see (Count)
system.loc_mem_ctrlrs0.rdQLenPdf::29                0                       # What read queue length does an incoming req see (Count)
system.loc_mem_ctrlrs0.rdQLenPdf::30                0                       # What read queue length does an incoming req see (Count)
system.loc_mem_ctrlrs0.rdQLenPdf::31                0                       # What read queue length does an incoming req see (Count)
system.loc_mem_ctrlrs0.wrQLenPdf::0                 1                       # What write queue length does an incoming req see (Count)
system.loc_mem_ctrlrs0.wrQLenPdf::1                 1                       # What write queue length does an incoming req see (Count)
system.loc_mem_ctrlrs0.wrQLenPdf::2                 1                       # What write queue length does an incoming req see (Count)
system.loc_mem_ctrlrs0.wrQLenPdf::3                 1                       # What write queue length does an incoming req see (Count)
system.loc_mem_ctrlrs0.wrQLenPdf::4                 1                       # What write queue length does an incoming req see (Count)
system.loc_mem_ctrlrs0.wrQLenPdf::5                 1                       # What write queue length does an incoming req see (Count)
system.loc_mem_ctrlrs0.wrQLenPdf::6                 1                       # What write queue length does an incoming req see (Count)
system.loc_mem_ctrlrs0.wrQLenPdf::7                 1                       # What write queue length does an incoming req see (Count)
system.loc_mem_ctrlrs0.wrQLenPdf::8                 1                       # What write queue length does an incoming req see (Count)
system.loc_mem_ctrlrs0.wrQLenPdf::9                 1                       # What write queue length does an incoming req see (Count)
system.loc_mem_ctrlrs0.wrQLenPdf::10                1                       # What write queue length does an incoming req see (Count)
system.loc_mem_ctrlrs0.wrQLenPdf::11                1                       # What write queue length does an incoming req see (Count)
system.loc_mem_ctrlrs0.wrQLenPdf::12                1                       # What write queue length does an incoming req see (Count)
system.loc_mem_ctrlrs0.wrQLenPdf::13                1                       # What write queue length does an incoming req see (Count)
system.loc_mem_ctrlrs0.wrQLenPdf::14                1                       # What write queue length does an incoming req see (Count)
system.loc_mem_ctrlrs0.wrQLenPdf::15                4                       # What write queue length does an incoming req see (Count)
system.loc_mem_ctrlrs0.wrQLenPdf::16                6                       # What write queue length does an incoming req see (Count)
system.loc_mem_ctrlrs0.wrQLenPdf::17               11                       # What write queue length does an incoming req see (Count)
system.loc_mem_ctrlrs0.wrQLenPdf::18               12                       # What write queue length does an incoming req see (Count)
system.loc_mem_ctrlrs0.wrQLenPdf::19               15                       # What write queue length does an incoming req see (Count)
system.loc_mem_ctrlrs0.wrQLenPdf::20               18                       # What write queue length does an incoming req see (Count)
system.loc_mem_ctrlrs0.wrQLenPdf::21               16                       # What write queue length does an incoming req see (Count)
system.loc_mem_ctrlrs0.wrQLenPdf::22               19                       # What write queue length does an incoming req see (Count)
system.loc_mem_ctrlrs0.wrQLenPdf::23               16                       # What write queue length does an incoming req see (Count)
system.loc_mem_ctrlrs0.wrQLenPdf::24               16                       # What write queue length does an incoming req see (Count)
system.loc_mem_ctrlrs0.wrQLenPdf::25               17                       # What write queue length does an incoming req see (Count)
system.loc_mem_ctrlrs0.wrQLenPdf::26               21                       # What write queue length does an incoming req see (Count)
system.loc_mem_ctrlrs0.wrQLenPdf::27               18                       # What write queue length does an incoming req see (Count)
system.loc_mem_ctrlrs0.wrQLenPdf::28               18                       # What write queue length does an incoming req see (Count)
system.loc_mem_ctrlrs0.wrQLenPdf::29               15                       # What write queue length does an incoming req see (Count)
system.loc_mem_ctrlrs0.wrQLenPdf::30               15                       # What write queue length does an incoming req see (Count)
system.loc_mem_ctrlrs0.wrQLenPdf::31               15                       # What write queue length does an incoming req see (Count)
system.loc_mem_ctrlrs0.wrQLenPdf::32               15                       # What write queue length does an incoming req see (Count)
system.loc_mem_ctrlrs0.wrQLenPdf::33                0                       # What write queue length does an incoming req see (Count)
system.loc_mem_ctrlrs0.wrQLenPdf::34                0                       # What write queue length does an incoming req see (Count)
system.loc_mem_ctrlrs0.wrQLenPdf::35                0                       # What write queue length does an incoming req see (Count)
system.loc_mem_ctrlrs0.wrQLenPdf::36                0                       # What write queue length does an incoming req see (Count)
system.loc_mem_ctrlrs0.wrQLenPdf::37                0                       # What write queue length does an incoming req see (Count)
system.loc_mem_ctrlrs0.wrQLenPdf::38                0                       # What write queue length does an incoming req see (Count)
system.loc_mem_ctrlrs0.wrQLenPdf::39                0                       # What write queue length does an incoming req see (Count)
system.loc_mem_ctrlrs0.wrQLenPdf::40                0                       # What write queue length does an incoming req see (Count)
system.loc_mem_ctrlrs0.wrQLenPdf::41                0                       # What write queue length does an incoming req see (Count)
system.loc_mem_ctrlrs0.wrQLenPdf::42                0                       # What write queue length does an incoming req see (Count)
system.loc_mem_ctrlrs0.wrQLenPdf::43                0                       # What write queue length does an incoming req see (Count)
system.loc_mem_ctrlrs0.wrQLenPdf::44                0                       # What write queue length does an incoming req see (Count)
system.loc_mem_ctrlrs0.wrQLenPdf::45                0                       # What write queue length does an incoming req see (Count)
system.loc_mem_ctrlrs0.wrQLenPdf::46                0                       # What write queue length does an incoming req see (Count)
system.loc_mem_ctrlrs0.wrQLenPdf::47                0                       # What write queue length does an incoming req see (Count)
system.loc_mem_ctrlrs0.wrQLenPdf::48                0                       # What write queue length does an incoming req see (Count)
system.loc_mem_ctrlrs0.wrQLenPdf::49                0                       # What write queue length does an incoming req see (Count)
system.loc_mem_ctrlrs0.wrQLenPdf::50                0                       # What write queue length does an incoming req see (Count)
system.loc_mem_ctrlrs0.wrQLenPdf::51                0                       # What write queue length does an incoming req see (Count)
system.loc_mem_ctrlrs0.wrQLenPdf::52                0                       # What write queue length does an incoming req see (Count)
system.loc_mem_ctrlrs0.wrQLenPdf::53                0                       # What write queue length does an incoming req see (Count)
system.loc_mem_ctrlrs0.wrQLenPdf::54                0                       # What write queue length does an incoming req see (Count)
system.loc_mem_ctrlrs0.wrQLenPdf::55                0                       # What write queue length does an incoming req see (Count)
system.loc_mem_ctrlrs0.wrQLenPdf::56                0                       # What write queue length does an incoming req see (Count)
system.loc_mem_ctrlrs0.wrQLenPdf::57                0                       # What write queue length does an incoming req see (Count)
system.loc_mem_ctrlrs0.wrQLenPdf::58                0                       # What write queue length does an incoming req see (Count)
system.loc_mem_ctrlrs0.wrQLenPdf::59                0                       # What write queue length does an incoming req see (Count)
system.loc_mem_ctrlrs0.wrQLenPdf::60                0                       # What write queue length does an incoming req see (Count)
system.loc_mem_ctrlrs0.wrQLenPdf::61                0                       # What write queue length does an incoming req see (Count)
system.loc_mem_ctrlrs0.wrQLenPdf::62                0                       # What write queue length does an incoming req see (Count)
system.loc_mem_ctrlrs0.wrQLenPdf::63                0                       # What write queue length does an incoming req see (Count)
system.loc_mem_ctrlrs0.rdPerTurnAround::samples           15                       # Reads before turning the bus around for writes (Count)
system.loc_mem_ctrlrs0.rdPerTurnAround::mean    18.133333                       # Reads before turning the bus around for writes (Count)
system.loc_mem_ctrlrs0.rdPerTurnAround::gmean    17.697276                       # Reads before turning the bus around for writes (Count)
system.loc_mem_ctrlrs0.rdPerTurnAround::stdev     4.763952                       # Reads before turning the bus around for writes (Count)
system.loc_mem_ctrlrs0.rdPerTurnAround::12-13            1      6.67%      6.67% # Reads before turning the bus around for writes (Count)
system.loc_mem_ctrlrs0.rdPerTurnAround::14-15            3     20.00%     26.67% # Reads before turning the bus around for writes (Count)
system.loc_mem_ctrlrs0.rdPerTurnAround::16-17            1      6.67%     33.33% # Reads before turning the bus around for writes (Count)
system.loc_mem_ctrlrs0.rdPerTurnAround::18-19            9     60.00%     93.33% # Reads before turning the bus around for writes (Count)
system.loc_mem_ctrlrs0.rdPerTurnAround::34-35            1      6.67%    100.00% # Reads before turning the bus around for writes (Count)
system.loc_mem_ctrlrs0.rdPerTurnAround::total           15                       # Reads before turning the bus around for writes (Count)
system.loc_mem_ctrlrs0.wrPerTurnAround::samples           15                       # Writes before turning the bus around for reads (Count)
system.loc_mem_ctrlrs0.wrPerTurnAround::mean    16.866667                       # Writes before turning the bus around for reads (Count)
system.loc_mem_ctrlrs0.wrPerTurnAround::gmean    16.804557                       # Writes before turning the bus around for reads (Count)
system.loc_mem_ctrlrs0.wrPerTurnAround::stdev     1.552264                       # Writes before turning the bus around for reads (Count)
system.loc_mem_ctrlrs0.wrPerTurnAround::16           11     73.33%     73.33% # Writes before turning the bus around for reads (Count)
system.loc_mem_ctrlrs0.wrPerTurnAround::18            1      6.67%     80.00% # Writes before turning the bus around for reads (Count)
system.loc_mem_ctrlrs0.wrPerTurnAround::19            1      6.67%     86.67% # Writes before turning the bus around for reads (Count)
system.loc_mem_ctrlrs0.wrPerTurnAround::20            2     13.33%    100.00% # Writes before turning the bus around for reads (Count)
system.loc_mem_ctrlrs0.wrPerTurnAround::total           15                       # Writes before turning the bus around for reads (Count)
system.loc_mem_ctrlrs0.bytesReadWrQ                 0                       # Total number of bytes read from write queue (Byte)
system.loc_mem_ctrlrs0.bytesReadSys             18112                       # Total read bytes from the system interface side (Byte)
system.loc_mem_ctrlrs0.bytesWrittenSys          18048                       # Total written bytes from the system interface side (Byte)
system.loc_mem_ctrlrs0.avgRdBWSys        181120001.81120002                       # Average system read bandwidth in Byte/s ((Byte/Second))
system.loc_mem_ctrlrs0.avgWrBWSys        180480001.80480003                       # Average system write bandwidth in Byte/s ((Byte/Second))
system.loc_mem_ctrlrs0.totGap                99818200                       # Total gap between requests (Tick)
system.loc_mem_ctrlrs0.avgGap               176669.38                       # Average gap between requests ((Tick/Count))
system.loc_mem_ctrlrs0.requestorReadBytes::writebacks        18112                       # Per-requestor bytes read from memory (Byte)
system.loc_mem_ctrlrs0.requestorWriteBytes::writebacks        16192                       # Per-requestor bytes write to memory (Byte)
system.loc_mem_ctrlrs0.requestorReadRate::writebacks 181120001.811200022697                       # Per-requestor bytes read from memory rate ((Byte/Second))
system.loc_mem_ctrlrs0.requestorWriteRate::writebacks 161920001.619200021029                       # Per-requestor bytes write to memory rate ((Byte/Second))
system.loc_mem_ctrlrs0.requestorReadAccesses::writebacks          283                       # Per-requestor read serviced memory accesses (Count)
system.loc_mem_ctrlrs0.requestorWriteAccesses::writebacks          282                       # Per-requestor write serviced memory accesses (Count)
system.loc_mem_ctrlrs0.requestorReadTotalLat::writebacks     17052600                       # Per-requestor read total memory access latency (Tick)
system.loc_mem_ctrlrs0.requestorWriteTotalLat::writebacks   2185854000                       # Per-requestor write total memory access latency (Tick)
system.loc_mem_ctrlrs0.requestorReadAvgLat::writebacks     60256.54                       # Per-requestor read average memory access latency ((Tick/Count))
system.loc_mem_ctrlrs0.requestorWriteAvgLat::writebacks   7751255.32                       # Per-requestor write average memory access latency ((Tick/Count))
system.loc_mem_ctrlrs0.dram.bytesRead::writebacks        18112                       # Number of bytes read from this memory (Byte)
system.loc_mem_ctrlrs0.dram.bytesRead::total        18112                       # Number of bytes read from this memory (Byte)
system.loc_mem_ctrlrs0.dram.bytesWritten::writebacks        18048                       # Number of bytes written to this memory (Byte)
system.loc_mem_ctrlrs0.dram.bytesWritten::total        18048                       # Number of bytes written to this memory (Byte)
system.loc_mem_ctrlrs0.dram.numReads::writebacks          283                       # Number of read requests responded to by this memory (Count)
system.loc_mem_ctrlrs0.dram.numReads::total          283                       # Number of read requests responded to by this memory (Count)
system.loc_mem_ctrlrs0.dram.numWrites::writebacks          282                       # Number of write requests responded to by this memory (Count)
system.loc_mem_ctrlrs0.dram.numWrites::total          282                       # Number of write requests responded to by this memory (Count)
system.loc_mem_ctrlrs0.dram.bwRead::writebacks    181120002                       # Total read bandwidth from this memory ((Byte/Second))
system.loc_mem_ctrlrs0.dram.bwRead::total    181120002                       # Total read bandwidth from this memory ((Byte/Second))
system.loc_mem_ctrlrs0.dram.bwWrite::writebacks    180480002                       # Write bandwidth from this memory ((Byte/Second))
[...]
system.scheds28.failedArbitrations                  0                       # Number of times an arbitration failed to send a request to MemCtrl (Count)
system.scheds28.totalArbitrations                   0                       # Total number of arbitrations over the request queues in the MemScheduler (Count)
system.scheds28.totalRQDelay                        0                       # Total queueing delay read requests have experienced in the MemScheduler (Count)
system.scheds28.totalWQDelay                        0                       # Total queueing delay write requests have experienced in the MemScheduler (Count)
system.scheds28.totalRespDelay                      0                       # total queueing delay in the response queue experienced by the MemScheduler (Count)
system.scheds28.avgRQDelay                        nan                       # Average queueing delay read requests have experienced in the MemScheduler (Count)
system.scheds28.avgWQDelay                        nan                       # Average queueing delay write requests have experienced in the MemScheduler (Count)
system.scheds28.avgRespDelay                      nan                       # Average queueing delay in the response queue experienced by the MemScheduler (Count)
system.scheds28.power_state.pwrStateResidencyTicks::UNDEFINED     99999999                       # Cumulative time (in ticks) in various power states (Tick)
system.scheds29.readReqs                            0                       # Number of read requests received by the MemScheduler (Count)
system.scheds29.writeReqs                           0                       # Number of write requests received by the MemScheduler (Count)
system.scheds29.bankConflicts                       0                       # Number of bank conflicts (Count)
system.scheds29.failedArbitrations                  0                       # Number of times an arbitration failed to send a request to MemCtrl (Count)
system.scheds29.totalArbitrations                   0                       # Total number of arbitrations over the request queues in the MemScheduler (Count)
system.scheds29.totalRQDelay                        0                       # Total queueing delay read requests have experienced in the MemScheduler (Count)
system.scheds29.totalWQDelay                        0                       # Total queueing delay write requests have experienced in the MemScheduler (Count)
system.scheds29.totalRespDelay                      0                       # total queueing delay in the response queue experienced by the MemScheduler (Count)
system.scheds29.avgRQDelay                        nan                       # Average queueing delay read requests have experienced in the MemScheduler (Count)
system.scheds29.avgWQDelay                        nan                       # Average queueing delay write requests have experienced in the MemScheduler (Count)
system.scheds29.avgRespDelay                      nan                       # Average queueing delay in the response queue experienced by the MemScheduler (Count)
system.scheds29.power_state.pwrStateResidencyTicks::UNDEFINED     99999999                       # Cumulative time (in ticks) in various power states (Tick)
system.scheds3.readReqs                             0                       # Number of read requests received by the MemScheduler (Count)
system.scheds3.writeReqs                            0                       # Number of write requests received by the MemScheduler (Count)
system.scheds3.bankConflicts                        0                       # Number of bank conflicts (Count)
system.scheds3.failedArbitrations                   0                       # Number of times an arbitration failed to send a request to MemCtrl (Count)
system.scheds3.totalArbitrations                    0                       # Total number of arbitrations over the request queues in the MemScheduler (Count)
system.scheds3.totalRQDelay                         0                       # Total queueing delay read requests have experienced in the MemScheduler (Count)
system.scheds3.totalWQDelay                         0                       # Total queueing delay write requests have experienced in the MemScheduler (Count)
system.scheds3.totalRespDelay                       0                       # total queueing delay in the response queue experienced by the MemScheduler (Count)
system.scheds3.avgRQDelay                         nan                       # Average queueing delay read requests have experienced in the MemScheduler (Count)
system.scheds3.avgWQDelay                         nan                       # Average queueing delay write requests have experienced in the MemScheduler (Count)
system.scheds3.avgRespDelay                       nan                       # Average queueing delay in the response queue experienced by the MemScheduler (Count)
system.scheds3.power_state.pwrStateResidencyTicks::UNDEFINED     99999999                       # Cumulative time (in ticks) in various power states (Tick)
system.scheds30.readReqs                            0                       # Number of read requests received by the MemScheduler (Count)
system.scheds30.writeReqs                           0                       # Number of write requests received by the MemScheduler (Count)
system.scheds30.bankConflicts                       0                       # Number of bank conflicts (Count)
system.scheds30.failedArbitrations                  0                       # Number of times an arbitration failed to send a request to MemCtrl (Count)
system.scheds30.totalArbitrations                   0                       # Total number of arbitrations over the request queues in the MemScheduler (Count)
system.scheds30.totalRQDelay                        0                       # Total queueing delay read requests have experienced in the MemScheduler (Count)
system.scheds30.totalWQDelay                        0                       # Total queueing delay write requests have experienced in the MemScheduler (Count)
system.scheds30.totalRespDelay                      0                       # total queueing delay in the response queue experienced by the MemScheduler (Count)
system.scheds30.avgRQDelay                        nan                       # Average queueing delay read requests have experienced in the MemScheduler (Count)
system.scheds30.avgWQDelay                        nan                       # Average queueing delay write requests have experienced in the MemScheduler (Count)
system.scheds30.avgRespDelay                      nan                       # Average queueing delay in the response queue experienced by the MemScheduler (Count)
system.scheds30.power_state.pwrStateResidencyTicks::UNDEFINED     99999999                       # Cumulative time (in ticks) in various power states (Tick)
system.scheds31.readReqs                            0                       # Number of read requests received by the MemScheduler (Count)
system.scheds31.writeReqs                           0                       # Number of write requests received by the MemScheduler (Count)
system.scheds31.bankConflicts                       0                       # Number of bank conflicts (Count)
system.scheds31.failedArbitrations                  0                       # Number of times an arbitration failed to send a request to MemCtrl (Count)
system.scheds31.totalArbitrations                   0                       # Total number of arbitrations over the request queues in the MemScheduler (Count)
system.scheds31.totalRQDelay                        0                       # Total queueing delay read requests have experienced in the MemScheduler (Count)
system.scheds31.totalWQDelay                        0                       # Total queueing delay write requests have experienced in the MemScheduler (Count)
system.scheds31.totalRespDelay                      0                       # total queueing delay in the response queue experienced by the MemScheduler (Count)
system.scheds31.avgRQDelay                        nan                       # Average queueing delay read requests have experienced in the MemScheduler (Count)
system.scheds31.avgWQDelay                        nan                       # Average queueing delay write requests have experienced in the MemScheduler (Count)
system.scheds31.avgRespDelay                      nan                       # Average queueing delay in the response queue experienced by the MemScheduler (Count)
system.scheds31.power_state.pwrStateResidencyTicks::UNDEFINED     99999999                       # Cumulative time (in ticks) in various power states (Tick)
system.scheds4.readReqs                             0                       # Number of read requests received by the MemScheduler (Count)
system.scheds4.writeReqs                            0                       # Number of write requests received by the MemScheduler (Count)
system.scheds4.bankConflicts                        0                       # Number of bank conflicts (Count)
system.scheds4.failedArbitrations                   0                       # Number of times an arbitration failed to send a request to MemCtrl (Count)
system.scheds4.totalArbitrations                    0                       # Total number of arbitrations over the request queues in the MemScheduler (Count)
system.scheds4.totalRQDelay                         0                       # Total queueing delay read requests have experienced in the MemScheduler (Count)
system.scheds4.totalWQDelay                         0                       # Total queueing delay write requests have experienced in the MemScheduler (Count)
system.scheds4.totalRespDelay                       0                       # total queueing delay in the response queue experienced by the MemScheduler (Count)
system.scheds4.avgRQDelay                         nan                       # Average queueing delay read requests have experienced in the MemScheduler (Count)
system.scheds4.avgWQDelay                         nan                       # Average queueing delay write requests have experienced in the MemScheduler (Count)
system.scheds4.avgRespDelay                       nan                       # Average queueing delay in the response queue experienced by the MemScheduler (Count)
system.scheds4.power_state.pwrStateResidencyTicks::UNDEFINED     99999999                       # Cumulative time (in ticks) in various power states (Tick)
system.scheds5.readReqs                             0                       # Number of read requests received by the MemScheduler (Count)
system.scheds5.writeReqs                            0                       # Number of write requests received by the MemScheduler (Count)
system.scheds5.bankConflicts                        0                       # Number of bank conflicts (Count)
system.scheds5.failedArbitrations                   0                       # Number of times an arbitration failed to send a request to MemCtrl (Count)
system.scheds5.totalArbitrations                    0                       # Total number of arbitrations over the request queues in the MemScheduler (Count)
system.scheds5.totalRQDelay                         0                       # Total queueing delay read requests have experienced in the MemScheduler (Count)
system.scheds5.totalWQDelay                         0                       # Total queueing delay write requests have experienced in the MemScheduler (Count)
system.scheds5.totalRespDelay                       0                       # total queueing delay in the response queue experienced by the MemScheduler (Count)
system.scheds5.avgRQDelay                         nan                       # Average queueing delay read requests have experienced in the MemScheduler (Count)
system.scheds5.avgWQDelay                         nan                       # Average queueing delay write requests have experienced in the MemScheduler (Count)
system.scheds5.avgRespDelay                       nan                       # Average queueing delay in the response queue experienced by the MemScheduler (Count)
system.scheds5.power_state.pwrStateResidencyTicks::UNDEFINED     99999999                       # Cumulative time (in ticks) in various power states (Tick)
system.scheds6.readReqs                             0                       # Number of read requests received by the MemScheduler (Count)
system.scheds6.writeReqs                            0                       # Number of write requests received by the MemScheduler (Count)
system.scheds6.bankConflicts                        0                       # Number of bank conflicts (Count)
system.scheds6.failedArbitrations                   0                       # Number of times an arbitration failed to send a request to MemCtrl (Count)
system.scheds6.totalArbitrations                    0                       # Total number of arbitrations over the request queues in the MemScheduler (Count)
system.scheds6.totalRQDelay                         0                       # Total queueing delay read requests have experienced in the MemScheduler (Count)
system.scheds6.totalWQDelay                         0                       # Total queueing delay write requests have experienced in the MemScheduler (Count)
system.scheds6.totalRespDelay                       0                       # total queueing delay in the response queue experienced by the MemScheduler (Count)
system.scheds6.avgRQDelay                         nan                       # Average queueing delay read requests have experienced in the MemScheduler (Count)
system.scheds6.avgWQDelay                         nan                       # Average queueing delay write requests have experienced in the MemScheduler (Count)
system.scheds6.avgRespDelay                       nan                       # Average queueing delay in the response queue experienced by the MemScheduler (Count)
system.scheds6.power_state.pwrStateResidencyTicks::UNDEFINED     99999999                       # Cumulative time (in ticks) in various power states (Tick)
system.scheds7.readReqs                             0                       # Number of read requests received by the MemScheduler (Count)
system.scheds7.writeReqs                            0                       # Number of write requests received by the MemScheduler (Count)
system.scheds7.bankConflicts                        0                       # Number of bank conflicts (Count)
system.scheds7.failedArbitrations                   0                       # Number of times an arbitration failed to send a request to MemCtrl (Count)
system.scheds7.totalArbitrations                    0                       # Total number of arbitrations over the request queues in the MemScheduler (Count)
system.scheds7.totalRQDelay                         0                       # Total queueing delay read requests have experienced in the MemScheduler (Count)
system.scheds7.totalWQDelay                         0                       # Total queueing delay write requests have experienced in the MemScheduler (Count)
system.scheds7.totalRespDelay                       0                       # total queueing delay in the response queue experienced by the MemScheduler (Count)
system.scheds7.avgRQDelay                         nan                       # Average queueing delay read requests have experienced in the MemScheduler (Count)
system.scheds7.avgWQDelay                         nan                       # Average queueing delay write requests have experienced in the MemScheduler (Count)
system.scheds7.avgRespDelay                       nan                       # Average queueing delay in the response queue experienced by the MemScheduler (Count)
system.scheds7.power_state.pwrStateResidencyTicks::UNDEFINED     99999999                       # Cumulative time (in ticks) in various power states (Tick)
system.scheds8.readReqs                             0                       # Number of read requests received by the MemScheduler (Count)
system.scheds8.writeReqs                            0                       # Number of write requests received by the MemScheduler (Count)
system.scheds8.bankConflicts                        0                       # Number of bank conflicts (Count)
system.scheds8.failedArbitrations                   0                       # Number of times an arbitration failed to send a request to MemCtrl (Count)
system.scheds8.totalArbitrations                    0                       # Total number of arbitrations over the request queues in the MemScheduler (Count)
system.scheds8.totalRQDelay                         0                       # Total queueing delay read requests have experienced in the MemScheduler (Count)
system.scheds8.totalWQDelay                         0                       # Total queueing delay write requests have experienced in the MemScheduler (Count)
system.scheds8.totalRespDelay                       0                       # total queueing delay in the response queue experienced by the MemScheduler (Count)
system.scheds8.avgRQDelay                         nan                       # Average queueing delay read requests have experienced in the MemScheduler (Count)
system.scheds8.avgWQDelay                         nan                       # Average queueing delay write requests have experienced in the MemScheduler (Count)
system.scheds8.avgRespDelay                       nan                       # Average queueing delay in the response queue experienced by the MemScheduler (Count)
system.scheds8.power_state.pwrStateResidencyTicks::UNDEFINED     99999999                       # Cumulative time (in ticks) in various power states (Tick)
system.scheds9.readReqs                             0                       # Number of read requests received by the MemScheduler (Count)
system.scheds9.writeReqs                            0                       # Number of write requests received by the MemScheduler (Count)
system.scheds9.bankConflicts                        0                       # Number of bank conflicts (Count)
system.scheds9.failedArbitrations                   0                       # Number of times an arbitration failed to send a request to MemCtrl (Count)
system.scheds9.totalArbitrations                    0                       # Total number of arbitrations over the request queues in the MemScheduler (Count)
system.scheds9.totalRQDelay                         0                       # Total queueing delay read requests have experienced in the MemScheduler (Count)
system.scheds9.totalWQDelay                         0                       # Total queueing delay write requests have experienced in the MemScheduler (Count)
system.scheds9.totalRespDelay                       0                       # total queueing delay in the response queue experienced by the MemScheduler (Count)
system.scheds9.avgRQDelay                         nan                       # Average queueing delay read requests have experienced in the MemScheduler (Count)
system.scheds9.avgWQDelay                         nan                       # Average queueing delay write requests have experienced in the MemScheduler (Count)
system.scheds9.avgRespDelay                       nan                       # Average queueing delay in the response queue experienced by the MemScheduler (Count)
system.scheds9.power_state.pwrStateResidencyTicks::UNDEFINED     99999999                       # Cumulative time (in ticks) in various power states (Tick)
system.workload.inst.arm                            0                       # number of arm instructions executed (Count)
system.workload.inst.quiesce                        0                       # number of quiesce instructions executed (Count)

---------- End Simulation Statistics   ----------
