
---------- Begin Simulation Statistics ----------
simSeconds                                   0.000100                       # Number of seconds simulated (Second)
simTicks                                    100017000                       # Number of ticks simulated (Tick)
finalTick                                   100017000                       # Number of ticks from beginning of simulation (restored from checkpoints and never reset) (Tick)
simFreq                                  1000000000000                       # The number of ticks per simulated second ((Tick/Second))
hostSeconds                                      0.12                       # Real time elapsed on the host (Second)
hostTickRate                                821702334                       # The number of ticks simulated per host second (ticks/s) ((Tick/Second))
hostMemory                                    3521188                       # Number of bytes of host memory used (Byte)
system.clk_domain.clock                           200                       # Clock period in ticks (Tick)
system.clk_domain.voltage_domain.voltage            1                       # Voltage in Volts (Volt)
system.far_mem_ctrl.avgPriority_writebacks::samples      5668.00                       # Average QoS priority value for accepted requests (Count)
system.far_mem_ctrl.priorityMinLatency   0.000000317492                       # per QoS priority minimum request to response latency (Second)
system.far_mem_ctrl.priorityMaxLatency   0.000002871492                       # per QoS priority maximum request to response latency (Second)
system.far_mem_ctrl.numReadWriteTurnArounds            0                       # Number of turnarounds from READ to WRITE (Count)
system.far_mem_ctrl.numWriteReadTurnArounds            0                       # Number of turnarounds from WRITE to READ (Count)
system.far_mem_ctrl.numStayReadState            16921                       # Number of times bus staying in READ state (Count)
system.far_mem_ctrl.numStayWriteState               0                       # Number of times bus staying in WRITE state (Count)
system.far_mem_ctrl.readReqs                     5668                       # Number of read requests accepted (Count)
system.far_mem_ctrl.writeReqs                       0                       # Number of write requests accepted (Count)
system.far_mem_ctrl.readBursts                   5668                       # Number of controller read bursts, including those serviced by the write queue (Count)
system.far_mem_ctrl.writeBursts                     0                       # Number of controller write bursts, including those merged in the write queue (Count)
system.far_mem_ctrl.servicedByWrQ                   0                       # Number of controller read bursts serviced by the write queue (Count)
system.far_mem_ctrl.mergedWrBursts                  0                       # Number of controller write bursts merged with an existing one (Count)
system.far_mem_ctrl.neitherReadNorWriteReqs            0                       # Number of requests that are neither read nor write (Count)
system.far_mem_ctrl.avgRdQLen                   17.71                       # Average read queue length when enqueuing ((Count/Tick))
system.far_mem_ctrl.avgWrQLen                    0.00                       # Average write queue length when enqueuing ((Count/Tick))
system.far_mem_ctrl.numRdRetry                      0                       # Number of times read queue was full causing retry (Count)
system.far_mem_ctrl.numWrRetry                      0                       # Number of times write queue was full causing retry (Count)
system.far_mem_ctrl.readPktSize::0                  0                       # Read request sizes (log2) (Count)
system.far_mem_ctrl.readPktSize::1                  0                       # Read request sizes (log2) (Count)
system.far_mem_ctrl.readPktSize::2                  0                       # Read request sizes (log2) (Count)
system.far_mem_ctrl.readPktSize::3                  0                       # Read request sizes (log2) (Count)
system.far_mem_ctrl.readPktSize::4                  0                       # Read request sizes (log2) (Count)
system.far_mem_ctrl.readPktSize::5                  0                       # Read request sizes (log2) (Count)
system.far_mem_ctrl.readPktSize::6               5668                       # Read request sizes (log2) (Count)
system.far_mem_ctrl.writePktSize::0                 0                       # Write request sizes (log2) (Count)
system.far_mem_ctrl.writePktSize::1                 0                       # Write request sizes (log2) (Count)
system.far_mem_ctrl.writePktSize::2                 0                       # Write request sizes (log2) (Count)
system.far_mem_ctrl.writePktSize::3                 0                       # Write request sizes (log2) (Count)
system.far_mem_ctrl.writePktSize::4                 0                       # Write request sizes (log2) (Count)
system.far_mem_ctrl.writePktSize::5                 0                       # Write request sizes (log2) (Count)
system.far_mem_ctrl.writePktSize::6                 0                       # Write request sizes (log2) (Count)
system.far_mem_ctrl.rdQLenPdf::0                    2                       # What read queue length does an incoming req see (Count)
system.far_mem_ctrl.rdQLenPdf::1                   11                       # What read queue length does an incoming req see (Count)
system.far_mem_ctrl.rdQLenPdf::2                   19                       # What read queue length does an incoming req see (Count)
system.far_mem_ctrl.rdQLenPdf::3                   23                       # What read queue length does an incoming req see (Count)
system.far_mem_ctrl.rdQLenPdf::4                   32                       # What read queue length does an incoming req see (Count)
system.far_mem_ctrl.rdQLenPdf::5                   67                       # What read queue length does an incoming req see (Count)
system.far_mem_ctrl.rdQLenPdf::6                  120                       # What read queue length does an incoming req see (Count)
system.far_mem_ctrl.rdQLenPdf::7                  181                       # What read queue length does an incoming req see (Count)
system.far_mem_ctrl.rdQLenPdf::8                  242                       # What read queue length does an incoming req see (Count)
system.far_mem_ctrl.rdQLenPdf::9                  320                       # What read queue length does an incoming req see (Count)
system.far_mem_ctrl.rdQLenPdf::10                 376                       # What read queue length does an incoming req see (Count)
system.far_mem_ctrl.rdQLenPdf::11                 433                       # What read queue length does an incoming req see (Count)
system.far_mem_ctrl.rdQLenPdf::12                 453                       # What read queue length does an incoming req see (Count)
system.far_mem_ctrl.rdQLenPdf::13                 499                       # What read queue length does an incoming req see (Count)
system.far_mem_ctrl.rdQLenPdf::14                 518                       # What read queue length does an incoming req see (Count)
system.far_mem_ctrl.rdQLenPdf::15                 492                       # What read queue length does an incoming req see (Count)
system.far_mem_ctrl.rdQLenPdf::16                 475                       # What read queue length does an incoming req see (Count)
system.far_mem_ctrl.rdQLenPdf::17                 425                       # What read queue length does an incoming req see (Count)
system.far_mem_ctrl.rdQLenPdf::18                 331                       # What read queue length does an incoming req see (Count)
system.far_mem_ctrl.rdQLenPdf::19                 221                       # What read queue length does an incoming req see (Count)
system.far_mem_ctrl.rdQLenPdf::20                 134                       # What read queue length does an incoming req see (Count)
system.far_mem_ctrl.rdQLenPdf::21                  93                       # What read queue length does an incoming req see (Count)
system.far_mem_ctrl.rdQLenPdf::22                  45                       # What read queue length does an incoming req see (Count)
system.far_mem_ctrl.rdQLenPdf::23                  18                       # What read queue length does an incoming req see (Count)
system.far_mem_ctrl.rdQLenPdf::24                  17                       # What read queue length does an incoming req see (Count)
system.far_mem_ctrl.rdQLenPdf::25                   6                       # What read queue length does an incoming req see (Count)
system.far_mem_ctrl.rdQLenPdf::26                   3                       # What read queue length does an incoming req see (Count)
system.far_mem_ctrl.rdQLenPdf::27                   4                       # What read queue length does an incoming req see (Count)
system.far_mem_ctrl.rdQLenPdf::28                   6                       # What read queue length does an incoming req see (Count)
system.far_mem_ctrl.rdQLenPdf::29                   4                       # What read queue length does an incoming req see (Count)
system.far_mem_ctrl.rdQLenPdf::30                   4                       # What read queue length does an incoming req see (Count)
system.far_mem_ctrl.rdQLenPdf::31                   6                       # What read queue length does an incoming req see (Count)
system.far_mem_ctrl.rdQLenPdf::32                   6                       # What read queue length does an incoming req see (Count)
system.far_mem_ctrl.rdQLenPdf::33                   5                       # What read queue length does an incoming req see (Count)
system.far_mem_ctrl.rdQLenPdf::34                   6                       # What read queue length does an incoming req see (Count)
system.far_mem_ctrl.rdQLenPdf::35                   4                       # What read queue length does an incoming req see (Count)
system.far_mem_ctrl.rdQLenPdf::36                   7                       # What read queue length does an incoming req see (Count)
system.far_mem_ctrl.rdQLenPdf::37                   5                       # What read queue length does an incoming req see (Count)
system.far_mem_ctrl.rdQLenPdf::38                   5                       # What read queue length does an incoming req see (Count)
system.far_mem_ctrl.rdQLenPdf::39                   5                       # What read queue length does an incoming req see (Count)
system.far_mem_ctrl.rdQLenPdf::40                   7                       # What read queue length does an incoming req see (Count)
system.far_mem_ctrl.rdQLenPdf::41                   3                       # What read queue length does an incoming req see (Count)
system.far_mem_ctrl.rdQLenPdf::42                   2                       # What read queue length does an incoming req see (Count)
system.far_mem_ctrl.rdQLenPdf::43                   4                       # What read queue length does an incoming req see (Count)
system.far_mem_ctrl.rdQLenPdf::44                   3                       # What read queue length does an incoming req see (Count)
system.far_mem_ctrl.rdQLenPdf::45                   3                       # What read queue length does an incoming req see (Count)
system.far_mem_ctrl.rdQLenPdf::46                   5                       # What read queue length does an incoming req see (Count)
system.far_mem_ctrl.rdQLenPdf::47                   8                       # What read queue length does an incoming req see (Count)
system.far_mem_ctrl.rdQLenPdf::48                   1                       # What read queue length does an incoming req see (Count)
system.far_mem_ctrl.rdQLenPdf::49                   3                       # What read queue length does an incoming req see (Count)
system.far_mem_ctrl.rdQLenPdf::50                   1                       # What read queue length does an incoming req see (Count)
system.far_mem_ctrl.rdQLenPdf::51                   1                       # What read queue length does an incoming req see (Count)
system.far_mem_ctrl.rdQLenPdf::52                   3                       # What read queue length does an incoming req see (Count)
system.far_mem_ctrl.rdQLenPdf::53                   1                       # What read queue length does an incoming req see (Count)
system.far_mem_ctrl.rdQLenPdf::54                   0                       # What read queue length does an incoming req see (Count)
system.far_mem_ctrl.rdQLenPdf::55                   0                       # What read queue length does an incoming req see (Count)
system.far_mem_ctrl.rdQLenPdf::56                   0                       # What read queue length does an incoming req see (Count)
system.far_mem_ctrl.rdQLenPdf::57                   0                       # What read queue length does an incoming req see (Count)
system.far_mem_ctrl.rdQLenPdf::58                   0                       # What read queue length does an incoming req see (Count)
system.far_mem_ctrl.rdQLenPdf::59                   0                       # What read queue length does an incoming req see (Count)
system.far_mem_ctrl.rdQLenPdf::60                   0                       # What read queue length does an incoming req see (Count)
system.far_mem_ctrl.rdQLenPdf::61                   0                       # What read queue length does an incoming req see (Count)
system.far_mem_ctrl.rdQLenPdf::62                   0                       # What read queue length does an incoming req see (Count)
system.far_mem_ctrl.rdQLenPdf::63                   0                       # What read queue length does an incoming req see (Count)
system.far_mem_ctrl.rdQLenPdf::64                   0                       # What read queue length does an incoming req see (Count)
system.far_mem_ctrl.rdQLenPdf::65                   0                       # What read queue length does an incoming req see (Count)
system.far_mem_ctrl.rdQLenPdf::66                   0                       # What read queue length does an incoming req see (Count)
system.far_mem_ctrl.rdQLenPdf::67                   0                       # What read queue length does an incoming req see (Count)
system.far_mem_ctrl.rdQLenPdf::68                   0                       # What read queue length does an incoming req see (Count)
system.far_mem_ctrl.rdQLenPdf::69                   0                       # What read queue length does an incoming req see (Count)
system.far_mem_ctrl.rdQLenPdf::70                   0                       # What read queue length does an incoming req see (Count)
system.far_mem_ctrl.rdQLenPdf::71                   0                       # What read queue length does an incoming req see (Count)
system.far_mem_ctrl.rdQLenPdf::72                   0                       # What read queue length does an incoming req see (Count)
system.far_mem_ctrl.rdQLenPdf::73                   0                       # What read queue length does an incoming req see (Count)
system.far_mem_ctrl.rdQLenPdf::74                   0                       # What read queue length does an incoming req see (Count)
system.far_mem_ctrl.rdQLenPdf::75                   0                       # What read queue length does an incoming req see (Count)
system.far_mem_ctrl.rdQLenPdf::76                   0                       # What read queue length does an incoming req see (Count)
system.far_mem_ctrl.rdQLenPdf::77                   0                       # What read queue length does an incoming req see (Count)
system.far_mem_ctrl.rdQLenPdf::78                   0                       # What read queue length does an incoming req see (Count)
system.far_mem_ctrl.rdQLenPdf::79                   0                       # What read queue length does an incoming req see (Count)
system.far_mem_ctrl.rdQLenPdf::80                   0                       # What read queue length does an incoming req see (Count)
system.far_mem_ctrl.rdQLenPdf::81                   0                       # What read queue length does an incoming req see (Count)
system.far_mem_ctrl.rdQLenPdf::82                   0                       # What read queue length does an incoming req see (Count)
system.far_mem_ctrl.rdQLenPdf::83                   0                       # What read queue length does an incoming req see (Count)
system.far_mem_ctrl.rdQLenPdf::84                   0                       # What read queue length does an incoming req see (Count)
system.far_mem_ctrl.rdQLenPdf::85                   0                       # What read queue length does an incoming req see (Count)
system.far_mem_ctrl.rdQLenPdf::86                   0                       # What read queue length does an incoming req see (Count)
system.far_mem_ctrl.rdQLenPdf::87                   0                       # What read queue length does an incoming req see (Count)
system.far_mem_ctrl.rdQLenPdf::88                   0                       # What read queue length does an incoming req see (Count)
system.far_mem_ctrl.rdQLenPdf::89                   0                       # What read queue length does an incoming req see (Count)
system.far_mem_ctrl.rdQLenPdf::90                   0                       # What read queue length does an incoming req see (Count)
system.far_mem_ctrl.rdQLenPdf::91                   0                       # What read queue length does an incoming req see (Count)
system.far_mem_ctrl.rdQLenPdf::92                   0                       # What read queue length does an incoming req see (Count)
system.far_mem_ctrl.rdQLenPdf::93                   0                       # What read queue length does an incoming req see (Count)
system.far_mem_ctrl.rdQLenPdf::94                   0                       # What read queue length does an incoming req see (Count)
system.far_mem_ctrl.rdQLenPdf::95                   0                       # What read queue length does an incoming req see (Count)
system.far_mem_ctrl.rdQLenPdf::96                   0                       # What read queue length does an incoming req see (Count)
system.far_mem_ctrl.rdQLenPdf::97                   0                       # What read queue length does an incoming req see (Count)
system.far_mem_ctrl.rdQLenPdf::98                   0                       # What read queue length does an incoming req see (Count)
system.far_mem_ctrl.rdQLenPdf::99                   0                       # What read queue length does an incoming req see (Count)
system.far_mem_ctrl.rdQLenPdf::100                  0                       # What read queue length does an incoming req see (Count)
system.far_mem_ctrl.rdQLenPdf::101                  0                       # What read queue length does an incoming req see (Count)
system.far_mem_ctrl.rdQLenPdf::102                  0                       # What read queue length does an incoming req see (Count)
system.far_mem_ctrl.rdQLenPdf::103                  0                       # What read queue length does an incoming req see (Count)
system.far_mem_ctrl.rdQLenPdf::104                  0                       # What read queue length does an incoming req see (Count)
system.far_mem_ctrl.rdQLenPdf::105                  0                       # What read queue length does an incoming req see (Count)
system.far_mem_ctrl.rdQLenPdf::106                  0                       # What read queue length does an incoming req see (Count)
system.far_mem_ctrl.rdQLenPdf::107                  0                       # What read queue length does an incoming req see (Count)
system.far_mem_ctrl.rdQLenPdf::108                  0                       # What read queue length does an incoming req see (Count)
system.far_mem_ctrl.rdQLenPdf::109                  0                       # What read queue length does an incoming req see (Count)
system.far_mem_ctrl.rdQLenPdf::110                  0                       # What read queue length does an incoming req see (Count)
system.far_mem_ctrl.rdQLenPdf::111                  0                       # What read queue length does an incoming req see (Count)
system.far_mem_ctrl.rdQLenPdf::112                  0                       # What read queue length does an incoming req see (Count)
system.far_mem_ctrl.rdQLenPdf::113                  0                       # What read queue length does an incoming req see (Count)
system.far_mem_ctrl.rdQLenPdf::114                  0                       # What read queue length does an incoming req see (Count)
system.far_mem_ctrl.rdQLenPdf::115                  0                       # What read queue length does an incoming req see (Count)
system.far_mem_ctrl.rdQLenPdf::116                  0                       # What read queue length does an incoming req see (Count)
system.far_mem_ctrl.rdQLenPdf::117                  0                       # What read queue length does an incoming req see (Count)
system.far_mem_ctrl.rdQLenPdf::118                  0                       # What read queue length does an incoming req see (Count)
system.far_mem_ctrl.rdQLenPdf::119                  0                       # What read queue length does an incoming req see (Count)
system.far_mem_ctrl.rdQLenPdf::120                  0                       # What read queue length does an incoming req see (Count)
system.far_mem_ctrl.rdQLenPdf::121                  0                       # What read queue length does an incoming req see (Count)
system.far_mem_ctrl.rdQLenPdf::122                  0                       # What read queue length does an incoming req see (Count)
system.far_mem_ctrl.rdQLenPdf::123                  0                       # What read queue length does an incoming req see (Count)
system.far_mem_ctrl.rdQLenPdf::124                  0                       # What read queue length does an incoming req see (Count)
system.far_mem_ctrl.rdQLenPdf::125                  0                       # What read queue length does an incoming req see (Count)
system.far_mem_ctrl.rdQLenPdf::126                  0                       # What read queue length does an incoming req see (Count)
system.far_mem_ctrl.rdQLenPdf::127                  0                       # What read queue length does an incoming req see (Count)
system.far_mem_ctrl.wrQLenPdf::0                    0                       # What write queue length does an incoming req see (Count)
system.far_mem_ctrl.wrQLenPdf::1                    0                       # What write queue length does an incoming req see (Count)
system.far_mem_ctrl.wrQLenPdf::2                    0                       # What write queue length does an incoming req see (Count)
system.far_mem_ctrl.wrQLenPdf::3                    0                       # What write queue length does an incoming req see (Count)
system.far_mem_ctrl.wrQLenPdf::4                    0                       # What write queue length does an incoming req see (Count)
system.far_mem_ctrl.wrQLenPdf::5                    0                       # What write queue length does an incoming req see (Count)
system.far_mem_ctrl.wrQLenPdf::6                    0                       # What write queue length does an incoming req see (Count)
system.far_mem_ctrl.wrQLenPdf::7                    0                       # What write queue length does an incoming req see (Count)
system.far_mem_ctrl.wrQLenPdf::8                    0                       # What write queue length does an incoming req see (Count)
system.far_mem_ctrl.wrQLenPdf::9                    0                       # What write queue length does an incoming req see (Count)
system.far_mem_ctrl.wrQLenPdf::10                   0                       # What write queue length does an incoming req see (Count)
system.far_mem_ctrl.wrQLenPdf::11                   0                       # What write queue length does an incoming req see (Count)
system.far_mem_ctrl.wrQLenPdf::12                   0                       # What write queue length does an incoming req see (Count)
system.far_mem_ctrl.wrQLenPdf::13                   0                       # What write queue length does an incoming req see (Count)
system.far_mem_ctrl.wrQLenPdf::14                   0                       # What write queue length does an incoming req see (Count)
system.far_mem_ctrl.wrQLenPdf::15                   0                       # What write queue length does an incoming req see (Count)
system.far_mem_ctrl.wrQLenPdf::16                   0                       # What write queue length does an incoming req see (Count)
system.far_mem_ctrl.wrQLenPdf::17                   0                       # What write queue length does an incoming req see (Count)
system.far_mem_ctrl.wrQLenPdf::18                   0                       # What write queue length does an incoming req see (Count)
system.far_mem_ctrl.wrQLenPdf::19                   0                       # What write queue length does an incoming req see (Count)
system.far_mem_ctrl.wrQLenPdf::20                   0                       # What write queue length does an incoming req see (Count)
system.far_mem_ctrl.wrQLenPdf::21                   0                       # What write queue length does an incoming req see (Count)
system.far_mem_ctrl.wrQLenPdf::22                   0                       # What write queue length does an incoming req see (Count)
system.far_mem_ctrl.wrQLenPdf::23                   0                       # What write queue length does an incoming req see (Count)
system.far_mem_ctrl.wrQLenPdf::24                   0                       # What write queue length does an incoming req see (Count)
system.far_mem_ctrl.wrQLenPdf::25                   0                       # What write queue length does an incoming req see (Count)
system.far_mem_ctrl.wrQLenPdf::26                   0                       # What write queue length does an incoming req see (Count)
system.far_mem_ctrl.wrQLenPdf::27                   0                       # What write queue length does an incoming req see (Count)
system.far_mem_ctrl.wrQLenPdf::28                   0                       # What write queue length does an incoming req see (Count)
system.far_mem_ctrl.wrQLenPdf::29                   0                       # What write queue length does an incoming req see (Count)
system.far_mem_ctrl.wrQLenPdf::30                   0                       # What write queue length does an incoming req see (Count)
system.far_mem_ctrl.wrQLenPdf::31                   0                       # What write queue length does an incoming req see (Count)
system.far_mem_ctrl.wrQLenPdf::32                   0                       # What write queue length does an incoming req see (Count)
system.far_mem_ctrl.wrQLenPdf::33                   0                       # What write queue length does an incoming req see (Count)
system.far_mem_ctrl.wrQLenPdf::34                   0                       # What write queue length does an incoming req see (Count)
system.far_mem_ctrl.wrQLenPdf::35                   0                       # What write queue length does an incoming req see (Count)
system.far_mem_ctrl.wrQLenPdf::36                   0                       # What write queue length does an incoming req see (Count)
system.far_mem_ctrl.wrQLenPdf::37                   0                       # What write queue length does an incoming req see (Count)
system.far_mem_ctrl.wrQLenPdf::38                   0                       # What write queue length does an incoming req see (Count)
system.far_mem_ctrl.wrQLenPdf::39                   0                       # What write queue length does an incoming req see (Count)
system.far_mem_ctrl.wrQLenPdf::40                   0                       # What write queue length does an incoming req see (Count)
system.far_mem_ctrl.wrQLenPdf::41                   0                       # What write queue length does an incoming req see (Count)
system.far_mem_ctrl.wrQLenPdf::42                   0                       # What write queue length does an incoming req see (Count)
system.far_mem_ctrl.wrQLenPdf::43                   0                       # What write queue length does an incoming req see (Count)
system.far_mem_ctrl.wrQLenPdf::44                   0                       # What write queue length does an incoming req see (Count)
system.far_mem_ctrl.wrQLenPdf::45                   0                       # What write queue length does an incoming req see (Count)
system.far_mem_ctrl.wrQLenPdf::46                   0                       # What write queue length does an incoming req see (Count)
system.far_mem_ctrl.wrQLenPdf::47                   0                       # What write queue length does an incoming req see (Count)
system.far_mem_ctrl.wrQLenPdf::48                   0                       # What write queue length does an incoming req see (Count)
system.far_mem_ctrl.wrQLenPdf::49                   0                       # What write queue length does an incoming req see (Count)
system.far_mem_ctrl.wrQLenPdf::50                   0                       # What write queue length does an incoming req see (Count)
system.far_mem_ctrl.wrQLenPdf::51                   0                       # What write queue length does an incoming req see (Count)
system.far_mem_ctrl.wrQLenPdf::52                   0                       # What write queue length does an incoming req see (Count)
system.far_mem_ctrl.wrQLenPdf::53                   0                       # What write queue length does an incoming req see (Count)
system.far_mem_ctrl.wrQLenPdf::54                   0                       # What write queue length does an incoming req see (Count)
system.far_mem_ctrl.wrQLenPdf::55                   0                       # What write queue length does an incoming req see (Count)
system.far_mem_ctrl.wrQLenPdf::56                   0                       # What write queue length does an incoming req see (Count)
system.far_mem_ctrl.wrQLenPdf::57                   0                       # What write queue length does an incoming req see (Count)
system.far_mem_ctrl.wrQLenPdf::58                   0                       # What write queue length does an incoming req see (Count)
system.far_mem_ctrl.wrQLenPdf::59                   0                       # What write queue length does an incoming req see (Count)
system.far_mem_ctrl.wrQLenPdf::60                   0                       # What write queue length does an incoming req see (Count)
system.far_mem_ctrl.wrQLenPdf::61                   0                       # What write queue length does an incoming req see (Count)
system.far_mem_ctrl.wrQLenPdf::62                   0                       # What write queue length does an incoming req see (Count)
system.far_mem_ctrl.wrQLenPdf::63                   0                       # What write queue length does an incoming req see (Count)
system.far_mem_ctrl.wrQLenPdf::64                   0                       # What write queue length does an incoming req see (Count)
system.far_mem_ctrl.wrQLenPdf::65                   0                       # What write queue length does an incoming req see (Count)
system.far_mem_ctrl.wrQLenPdf::66                   0                       # What write queue length does an incoming req see (Count)
system.far_mem_ctrl.wrQLenPdf::67                   0                       # What write queue length does an incoming req see (Count)
system.far_mem_ctrl.wrQLenPdf::68                   0                       # What write queue length does an incoming req see (Count)
system.far_mem_ctrl.wrQLenPdf::69                   0                       # What write queue length does an incoming req see (Count)
system.far_mem_ctrl.wrQLenPdf::70                   0                       # What write queue length does an incoming req see (Count)
system.far_mem_ctrl.wrQLenPdf::71                   0                       # What write queue length does an incoming req see (Count)
system.far_mem_ctrl.wrQLenPdf::72                   0                       # What write queue length does an incoming req see (Count)
system.far_mem_ctrl.wrQLenPdf::73                   0                       # What write queue length does an incoming req see (Count)
system.far_mem_ctrl.wrQLenPdf::74                   0                       # What write queue length does an incoming req see (Count)
system.far_mem_ctrl.wrQLenPdf::75                   0                       # What write queue length does an incoming req see (Count)
system.far_mem_ctrl.wrQLenPdf::76                   0                       # What write queue length does an incoming req see (Count)
system.far_mem_ctrl.wrQLenPdf::77                   0                       # What write queue length does an incoming req see (Count)
system.far_mem_ctrl.wrQLenPdf::78                   0                       # What write queue length does an incoming req see (Count)
system.far_mem_ctrl.wrQLenPdf::79                   0                       # What write queue length does an incoming req see (Count)
system.far_mem_ctrl.wrQLenPdf::80                   0                       # What write queue length does an incoming req see (Count)
system.far_mem_ctrl.wrQLenPdf::81                   0                       # What write queue length does an incoming req see (Count)
system.far_mem_ctrl.wrQLenPdf::82                   0                       # What write queue length does an incoming req see (Count)
system.far_mem_ctrl.wrQLenPdf::83                   0                       # What write queue length does an incoming req see (Count)
system.far_mem_ctrl.wrQLenPdf::84                   0                       # What write queue length does an incoming req see (Count)
system.far_mem_ctrl.wrQLenPdf::85                   0                       # What write queue length does an incoming req see (Count)
system.far_mem_ctrl.wrQLenPdf::86                   0                       # What write queue length does an incoming req see (Count)
system.far_mem_ctrl.wrQLenPdf::87                   0                       # What write queue length does an incoming req see (Count)
system.far_mem_ctrl.wrQLenPdf::88                   0                       # What write queue length does an incoming req see (Count)
system.far_mem_ctrl.wrQLenPdf::89                   0                       # What write queue length does an incoming req see (Count)
system.far_mem_ctrl.wrQLenPdf::90                   0                       # What write queue length does an incoming req see (Count)
system.far_mem_ctrl.wrQLenPdf::91                   0                       # What write queue length does an incoming req see (Count)
system.far_mem_ctrl.wrQLenPdf::92                   0                       # What write queue length does an incoming req see (Count)
system.far_mem_ctrl.wrQLenPdf::93                   0                       # What write queue length does an incoming req see (Count)
system.far_mem_ctrl.wrQLenPdf::94                   0                       # What write queue length does an incoming req see (Count)
system.far_mem_ctrl.wrQLenPdf::95                   0                       # What write queue length does an incoming req see (Count)
system.far_mem_ctrl.wrQLenPdf::96                   0                       # What write queue length does an incoming req see (Count)
system.far_mem_ctrl.wrQLenPdf::97                   0                       # What write queue length does an incoming req see (Count)
system.far_mem_ctrl.wrQLenPdf::98                   0                       # What write queue length does an incoming req see (Count)
system.far_mem_ctrl.wrQLenPdf::99                   0                       # What write queue length does an incoming req see (Count)
system.far_mem_ctrl.wrQLenPdf::100                  0                       # What write queue length does an incoming req see (Count)
system.far_mem_ctrl.wrQLenPdf::101                  0                       # What write queue length does an incoming req see (Count)
system.far_mem_ctrl.wrQLenPdf::102                  0                       # What write queue length does an incoming req see (Count)
system.far_mem_ctrl.wrQLenPdf::103                  0                       # What write queue length does an incoming req see (Count)
system.far_mem_ctrl.wrQLenPdf::104                  0                       # What write queue length does an incoming req see (Count)
system.far_mem_ctrl.wrQLenPdf::105                  0                       # What write queue length does an incoming req see (Count)
system.far_mem_ctrl.wrQLenPdf::106                  0                       # What write queue length does an incoming req see (Count)
system.far_mem_ctrl.wrQLenPdf::107                  0                       # What write queue length does an incoming req see (Count)
system.far_mem_ctrl.wrQLenPdf::108                  0                       # What write queue length does an incoming req see (Count)
system.far_mem_ctrl.wrQLenPdf::109                  0                       # What write queue length does an incoming req see (Count)
system.far_mem_ctrl.wrQLenPdf::110                  0                       # What write queue length does an incoming req see (Count)
system.far_mem_ctrl.wrQLenPdf::111                  0                       # What write queue length does an incoming req see (Count)
system.far_mem_ctrl.wrQLenPdf::112                  0                       # What write queue length does an incoming req see (Count)
system.far_mem_ctrl.wrQLenPdf::113                  0                       # What write queue length does an incoming req see (Count)
system.far_mem_ctrl.wrQLenPdf::114                  0                       # What write queue length does an incoming req see (Count)
system.far_mem_ctrl.wrQLenPdf::115                  0                       # What write queue length does an incoming req see (Count)
system.far_mem_ctrl.wrQLenPdf::116                  0                       # What write queue length does an incoming req see (Count)
system.far_mem_ctrl.wrQLenPdf::117                  0                       # What write queue length does an incoming req see (Count)
system.far_mem_ctrl.wrQLenPdf::118                  0                       # What write queue length does an incoming req see (Count)
system.far_mem_ctrl.wrQLenPdf::119                  0                       # What write queue length does an incoming req see (Count)
system.far_mem_ctrl.wrQLenPdf::120                  0                       # What write queue length does an incoming req see (Count)
system.far_mem_ctrl.wrQLenPdf::121                  0                       # What write queue length does an incoming req see (Count)
system.far_mem_ctrl.wrQLenPdf::122                  0                       # What write queue length does an incoming req see (Count)
system.far_mem_ctrl.wrQLenPdf::123                  0                       # What write queue length does an incoming req see (Count)
system.far_mem_ctrl.wrQLenPdf::124                  0                       # What write queue length does an incoming req see (Count)
system.far_mem_ctrl.wrQLenPdf::125                  0                       # What write queue length does an incoming req see (Count)
system.far_mem_ctrl.wrQLenPdf::126                  0                       # What write queue length does an incoming req see (Count)
system.far_mem_ctrl.wrQLenPdf::127                  0                       # What write queue length does an incoming req see (Count)
system.far_mem_ctrl.bytesReadWrQ                    0                       # Total number of bytes read from write queue (Byte)
system.far_mem_ctrl.bytesReadSys               362752                       # Total read bytes from the system interface side (Byte)
system.far_mem_ctrl.bytesWrittenSys                 0                       # Total written bytes from the system interface side (Byte)
system.far_mem_ctrl.avgRdBWSys           3626903426.41750908                       # Average system read bandwidth in Byte/s ((Byte/Second))
system.far_mem_ctrl.avgWrBWSys             0.00000000                       # Average system write bandwidth in Byte/s ((Byte/Second))
system.far_mem_ctrl.totGap                   99861000                       # Total gap between requests (Tick)
system.far_mem_ctrl.avgGap                   17618.38                       # Average gap between requests ((Tick/Count))
system.far_mem_ctrl.requestorReadBytes::writebacks       361984                       # Per-requestor bytes read from memory (Byte)
system.far_mem_ctrl.requestorReadRate::writebacks 3619224731.795594692230                       # Per-requestor bytes read from memory rate ((Byte/Second))
system.far_mem_ctrl.requestorReadAccesses::writebacks         5668                       # Per-requestor read serviced memory accesses (Count)
system.far_mem_ctrl.requestorReadTotalLat::writebacks   1436925654                       # Per-requestor read total memory access latency (Tick)
system.far_mem_ctrl.requestorReadAvgLat::writebacks    253515.46                       # Per-requestor read average memory access latency ((Tick/Count))
system.far_mem_ctrl.dram.bytesRead::writebacks       361984                       # Number of bytes read from this memory (Byte)
system.far_mem_ctrl.dram.bytesRead::total       361984                       # Number of bytes read from this memory (Byte)
system.far_mem_ctrl.dram.numReads::writebacks         5656                       # Number of read requests responded to by this memory (Count)
system.far_mem_ctrl.dram.numReads::total         5656                       # Number of read requests responded to by this memory (Count)
system.far_mem_ctrl.dram.bwRead::writebacks   3619224732                       # Total read bandwidth from this memory ((Byte/Second))
system.far_mem_ctrl.dram.bwRead::total     3619224732                       # Total read bandwidth from this memory ((Byte/Second))
system.far_mem_ctrl.dram.bwTotal::writebacks   3619224732                       # Total bandwidth to/from this memory ((Byte/Second))
system.far_mem_ctrl.dram.bwTotal::total    3619224732                       # Total bandwidth to/from this memory ((Byte/Second))
system.far_mem_ctrl.dram.readBursts              5656                       # Number of NVM read bursts (Count)
system.far_mem_ctrl.dram.writeBursts                0                       # Number of NVM write bursts (Count)
system.far_mem_ctrl.dram.perBankRdBursts::0          362                       # Per bank write bursts (Count)
system.far_mem_ctrl.dram.perBankRdBursts::1          350                       # Per bank write bursts (Count)
system.far_mem_ctrl.dram.perBankRdBursts::2          360                       # Per bank write bursts (Count)
system.far_mem_ctrl.dram.perBankRdBursts::3          362                       # Per bank write bursts (Count)
system.far_mem_ctrl.dram.perBankRdBursts::4          330                       # Per bank write bursts (Count)
system.far_mem_ctrl.dram.perBankRdBursts::5          322                       # Per bank write bursts (Count)
system.far_mem_ctrl.dram.perBankRdBursts::6          378                       # Per bank write bursts (Count)
system.far_mem_ctrl.dram.perBankRdBursts::7          371                       # Per bank write bursts (Count)
system.far_mem_ctrl.dram.perBankRdBursts::8          363                       # Per bank write bursts (Count)
system.far_mem_ctrl.dram.perBankRdBursts::9          332                       # Per bank write bursts (Count)
system.far_mem_ctrl.dram.perBankRdBursts::10          364                       # Per bank write bursts (Count)
system.far_mem_ctrl.dram.perBankRdBursts::11          370                       # Per bank write bursts (Count)
system.far_mem_ctrl.dram.perBankRdBursts::12          332                       # Per bank write bursts (Count)
system.far_mem_ctrl.dram.perBankRdBursts::13          353                       # Per bank write bursts (Count)
system.far_mem_ctrl.dram.perBankRdBursts::14          371                       # Per bank write bursts (Count)
system.far_mem_ctrl.dram.perBankRdBursts::15          336                       # Per bank write bursts (Count)
system.far_mem_ctrl.dram.perBankWrBursts::0            0                       # Per bank write bursts (Count)
system.far_mem_ctrl.dram.perBankWrBursts::1            0                       # Per bank write bursts (Count)
system.far_mem_ctrl.dram.perBankWrBursts::2            0                       # Per bank write bursts (Count)
system.far_mem_ctrl.dram.perBankWrBursts::3            0                       # Per bank write bursts (Count)
system.far_mem_ctrl.dram.perBankWrBursts::4            0                       # Per bank write bursts (Count)
system.far_mem_ctrl.dram.perBankWrBursts::5            0                       # Per bank write bursts (Count)
system.far_mem_ctrl.dram.perBankWrBursts::6            0                       # Per bank write bursts (Count)
system.far_mem_ctrl.dram.perBankWrBursts::7            0                       # Per bank write bursts (Count)
system.far_mem_ctrl.dram.perBankWrBursts::8            0                       # Per bank write bursts (Count)
system.far_mem_ctrl.dram.perBankWrBursts::9            0                       # Per bank write bursts (Count)
system.far_mem_ctrl.dram.perBankWrBursts::10            0                       # Per bank write bursts (Count)
system.far_mem_ctrl.dram.perBankWrBursts::11            0                       # Per bank write bursts (Count)
system.far_mem_ctrl.dram.perBankWrBursts::12            0                       # Per bank write bursts (Count)
system.far_mem_ctrl.dram.perBankWrBursts::13            0                       # Per bank write bursts (Count)
system.far_mem_ctrl.dram.perBankWrBursts::14            0                       # Per bank write bursts (Count)
system.far_mem_ctrl.dram.perBankWrBursts::15            0                       # Per bank write bursts (Count)
system.far_mem_ctrl.dram.totQLat           1337990902                       # Total ticks spent queuing (Tick)
system.far_mem_ctrl.dram.totBusLat           18845792                       # Total ticks spent in databus transfers (Tick)
system.far_mem_ctrl.dram.totMemAccLat      1436925654                       # Total ticks spent from burst creation until serviced by the NVM (Tick)
system.far_mem_ctrl.dram.avgQLat            236561.33                       # Average queueing delay per NVM burst ((Tick/Count))
system.far_mem_ctrl.dram.avgBusLat            3332.00                       # Average bus latency per NVM burst ((Tick/Count))
system.far_mem_ctrl.dram.avgMemAccLat       254053.33                       # Average memory access latency per NVM burst ((Tick/Count))
system.far_mem_ctrl.dram.avgRdBW              3619.22                       # Average DRAM read bandwidth in MiBytes/s ((Byte/Second))
system.far_mem_ctrl.dram.avgWrBW                 0.00                       # Average DRAM write bandwidth in MiBytes/s ((Byte/Second))
system.far_mem_ctrl.dram.peakBW              19207.00                       # Theoretical peak bandwidth in MiByte/s ((Byte/Second))
system.far_mem_ctrl.dram.busUtil                18.84                       # NVM Data bus utilization in percentage (Ratio)
system.far_mem_ctrl.dram.busUtilRead            18.84                       # NVM Data bus read utilization in percentage (Ratio)
system.far_mem_ctrl.dram.busUtilWrite            0.00                       # NVM Data bus write utilization in percentage (Ratio)
system.far_mem_ctrl.dram.pendingReads::samples         5656                       # Reads issued to NVM for which data has not been transferred (Count)
system.far_mem_ctrl.dram.pendingReads::mean    13.171499                       # Reads issued to NVM for which data has not been transferred (Count)
system.far_mem_ctrl.dram.pendingReads::stdev     5.255382                       # Reads issued to NVM for which data has not been transferred (Count)
system.far_mem_ctrl.dram.pendingReads::0            4      0.07%      0.07% # Reads issued to NVM for which data has not been transferred (Count)
system.far_mem_ctrl.dram.pendingReads::1           13      0.23%      0.30% # Reads issued to NVM for which data has not been transferred (Count)
system.far_mem_ctrl.dram.pendingReads::2           20      0.35%      0.65% # Reads issued to NVM for which data has not been transferred (Count)
system.far_mem_ctrl.dram.pendingReads::3           24      0.42%      1.08% # Reads issued to NVM for which data has not been transferred (Count)
system.far_mem_ctrl.dram.pendingReads::4           42      0.74%      1.82% # Reads issued to NVM for which data has not been transferred (Count)
system.far_mem_ctrl.dram.pendingReads::5           91      1.61%      3.43% # Reads issued to NVM for which data has not been transferred (Count)
system.far_mem_ctrl.dram.pendingReads::6          145      2.56%      5.99% # Reads issued to NVM for which data has not been transferred (Count)
system.far_mem_ctrl.dram.pendingReads::7          225      3.98%      9.97% # Reads issued to NVM for which data has not been transferred (Count)
system.far_mem_ctrl.dram.pendingReads::8          304      5.37%     15.35% # Reads issued to NVM for which data has not been transferred (Count)
system.far_mem_ctrl.dram.pendingReads::9          349      6.17%     21.52% # Reads issued to NVM for which data has not been transferred (Count)
system.far_mem_ctrl.dram.pendingReads::10          433      7.66%     29.17% # Reads issued to NVM for which data has not been transferred (Count)
system.far_mem_ctrl.dram.pendingReads::11          476      8.42%     37.59% # Reads issued to NVM for which data has not been transferred (Count)
system.far_mem_ctrl.dram.pendingReads::12          505      8.93%     46.52% # Reads issued to NVM for which data has not been transferred (Count)
system.far_mem_ctrl.dram.pendingReads::13          488      8.63%     55.14% # Reads issued to NVM for which data has not been transferred (Count)
system.far_mem_ctrl.dram.pendingReads::14          515      9.11%     64.25% # Reads issued to NVM for which data has not been transferred (Count)
system.far_mem_ctrl.dram.pendingReads::15          480      8.49%     72.74% # Reads issued to NVM for which data has not been transferred (Count)
system.far_mem_ctrl.dram.pendingReads::16          445      7.87%     80.60% # Reads issued to NVM for which data has not been transferred (Count)
system.far_mem_ctrl.dram.pendingReads::17          359      6.35%     86.95% # Reads issued to NVM for which data has not been transferred (Count)
system.far_mem_ctrl.dram.pendingReads::18          245      4.33%     91.28% # Reads issued to NVM for which data has not been transferred (Count)
system.far_mem_ctrl.dram.pendingReads::19          175      3.09%     94.38% # Reads issued to NVM for which data has not been transferred (Count)
system.far_mem_ctrl.dram.pendingReads::20          108      1.91%     96.29% # Reads issued to NVM for which data has not been transferred (Count)
system.far_mem_ctrl.dram.pendingReads::21           54      0.95%     97.24% # Reads issued to NVM for which data has not been transferred (Count)
system.far_mem_ctrl.dram.pendingReads::22           26      0.46%     97.70% # Reads issued to NVM for which data has not been transferred (Count)
system.far_mem_ctrl.dram.pendingReads::23            8      0.14%     97.84% # Reads issued to NVM for which data has not been transferred (Count)
system.far_mem_ctrl.dram.pendingReads::24            6      0.11%     97.95% # Reads issued to NVM for which data has not been transferred (Count)
system.far_mem_ctrl.dram.pendingReads::25            3      0.05%     98.00% # Reads issued to NVM for which data has not been transferred (Count)
system.far_mem_ctrl.dram.pendingReads::26            4      0.07%     98.07% # Reads issued to NVM for which data has not been transferred (Count)
system.far_mem_ctrl.dram.pendingReads::27            6      0.11%     98.18% # Reads issued to NVM for which data has not been transferred (Count)
system.far_mem_ctrl.dram.pendingReads::28            5      0.09%     98.27% # Reads issued to NVM for which data has not been transferred (Count)
system.far_mem_ctrl.dram.pendingReads::29            6      0.11%     98.37% # Reads issued to NVM for which data has not been transferred (Count)
system.far_mem_ctrl.dram.pendingReads::30            5      0.09%     98.46% # Reads issued to NVM for which data has not been transferred (Count)
system.far_mem_ctrl.dram.pendingReads::31            8      0.14%     98.60% # Reads issued to NVM for which data has not been transferred (Count)
system.far_mem_ctrl.dram.pendingReads::32            3      0.05%     98.66% # Reads issued to NVM for which data has not been transferred (Count)
system.far_mem_ctrl.dram.pendingReads::33            5      0.09%     98.74% # Reads issued to NVM for which data has not been transferred (Count)
system.far_mem_ctrl.dram.pendingReads::34            9      0.16%     98.90% # Reads issued to NVM for which data has not been transferred (Count)
system.far_mem_ctrl.dram.pendingReads::35            4      0.07%     98.97% # Reads issued to NVM for which data has not been transferred (Count)
system.far_mem_ctrl.dram.pendingReads::36            4      0.07%     99.05% # Reads issued to NVM for which data has not been transferred (Count)
system.far_mem_ctrl.dram.pendingReads::37            8      0.14%     99.19% # Reads issued to NVM for which data has not been transferred (Count)
system.far_mem_ctrl.dram.pendingReads::38            7      0.12%     99.31% # Reads issued to NVM for which data has not been transferred (Count)
system.far_mem_ctrl.dram.pendingReads::39            2      0.04%     99.35% # Reads issued to NVM for which data has not been transferred (Count)
system.far_mem_ctrl.dram.pendingReads::40            3      0.05%     99.40% # Reads issued to NVM for which data has not been transferred (Count)
system.far_mem_ctrl.dram.pendingReads::41            4      0.07%     99.47% # Reads issued to NVM for which data has not been transferred (Count)
system.far_mem_ctrl.dram.pendingReads::42            2      0.04%     99.50% # Reads issued to NVM for which data has not been transferred (Count)
system.far_mem_ctrl.dram.pendingReads::43            4      0.07%     99.58% # Reads issued to NVM for which data has not been transferred (Count)
system.far_mem_ctrl.dram.pendingReads::44            5      0.09%     99.66% # Reads issued to NVM for which data has not been transferred (Count)
system.far_mem_ctrl.dram.pendingReads::45            7      0.12%     99.79% # Reads issued to NVM for which data has not been transferred (Count)
system.far_mem_ctrl.dram.pendingReads::46            1      0.02%     99.81% # Reads issued to NVM for which data has not been transferred (Count)
system.far_mem_ctrl.dram.pendingReads::47            2      0.04%     99.84% # Reads issued to NVM for which data has not been transferred (Count)
system.far_mem_ctrl.dram.pendingReads::48            4      0.07%     99.91% # Reads issued to NVM for which data has not been transferred (Count)
system.far_mem_ctrl.dram.pendingReads::49            2      0.04%     99.95% # Reads issued to NVM for which data has not been transferred (Count)
system.far_mem_ctrl.dram.pendingReads::50            2      0.04%     99.98% # Reads issued to NVM for which data has not been transferred (Count)
system.far_mem_ctrl.dram.pendingReads::51            1      0.02%    100.00% # Reads issued to NVM for which data has not been transferred (Count)
system.far_mem_ctrl.dram.pendingReads::total         5656                       # Reads issued to NVM for which data has not been transferred (Count)
system.far_mem_ctrl.dram.bytesPerBank::samples         5668                       # Bytes read within a bank before loading new bank (Byte)
system.far_mem_ctrl.dram.bytesPerBank::mean           64                       # Bytes read within a bank before loading new bank (Byte)
system.far_mem_ctrl.dram.bytesPerBank::gmean    64.000000                       # Bytes read within a bank before loading new bank (Byte)
system.far_mem_ctrl.dram.bytesPerBank::64         5668    100.00%    100.00% # Bytes read within a bank before loading new bank (Byte)
system.far_mem_ctrl.dram.bytesPerBank::total         5668                       # Bytes read within a bank before loading new bank (Byte)
system.far_mem_ctrl.dram.power_state.pwrStateResidencyTicks::UNDEFINED    100017000                       # Cumulative time (in ticks) in various power states (Tick)
system.far_mem_ctrl.power_state.pwrStateResidencyTicks::UNDEFINED    100017000                       # Cumulative time (in ticks) in various power states (Tick)
system.generators0.numSuppressed                    0                       # Number of suppressed packets to non-memory space (Count)
system.generators0.numPackets                      92                       # Number of packets generated (Count)
system.generators0.numRetries                     178                       # Number of retries (Count)
system.generators0.retryTicks                98854603                       # Time spent waiting due to back-pressure (Tick)
system.generators0.bytesRead                     5632                       # Number of bytes read (Byte)
system.generators0.bytesWritten                     0                       # Number of bytes written (Byte)
system.generators0.totalReadLatency         457042338                       # Total latency of read requests (Tick)
system.generators0.totalWriteLatency                0                       # Total latency of write requests (Tick)
system.generators0.totalReads                      88                       # Total num of reads (Count)
system.generators0.totalWrites                      0                       # Total num of writes (Count)
system.generators0.avgReadLatency        5193662.931818                       # Avg latency of read requests ((Tick/Count))
system.generators0.avgWriteLatency                nan                       # Avg latency of write requests ((Tick/Count))
system.generators0.readBW                56310427.227371                       # Read bandwidth ((Byte/Second))
system.generators0.writeBW                          0                       # Write bandwidth ((Byte/Second))
system.generators0.power_state.pwrStateResidencyTicks::UNDEFINED    100017000                       # Cumulative time (in ticks) in various power states (Tick)
system.generators1.numSuppressed                    0                       # Number of suppressed packets to non-memory space (Count)
system.generators1.numPackets                      92                       # Number of packets generated (Count)
system.generators1.numRetries                     180                       # Number of retries (Count)
system.generators1.retryTicks               100016603                       # Time spent waiting due to back-pressure (Tick)
system.generators1.bytesRead                     5632                       # Number of bytes read (Byte)
system.generators1.bytesWritten                     0                       # Number of bytes written (Byte)
system.generators1.totalReadLatency         458961538                       # Total latency of read requests (Tick)
system.generators1.totalWriteLatency                0                       # Total latency of write requests (Tick)
system.generators1.totalReads                      88                       # Total num of reads (Count)
system.generators1.totalWrites                      0                       # Total num of writes (Count)
system.generators1.avgReadLatency        5215472.022727                       # Avg latency of read requests ((Tick/Count))
system.generators1.avgWriteLatency                nan                       # Avg latency of write requests ((Tick/Count))
system.generators1.readBW                56310427.227371                       # Read bandwidth ((Byte/Second))
system.generators1.writeBW                          0                       # Write bandwidth ((Byte/Second))
system.generators1.power_state.pwrStateResidencyTicks::UNDEFINED    100017000                       # Cumulative time (in ticks) in various power states (Tick)
system.generators10.numSuppressed                   0                       # Number of suppressed packets to non-memory space (Count)
system.generators10.numPackets                     93                       # Number of packets generated (Count)
system.generators10.numRetries                    180                       # Number of retries (Count)
system.generators10.retryTicks               99914603                       # Time spent waiting due to back-pressure (Tick)
system.generators10.bytesRead                    5568                       # Number of bytes read (Byte)
system.generators10.bytesWritten                    0                       # Number of bytes written (Byte)
system.generators10.totalReadLatency        444963140                       # Total latency of read requests (Tick)
system.generators10.totalWriteLatency               0                       # Total latency of write requests (Tick)
system.generators10.totalReads                     87                       # Total num of reads (Count)
system.generators10.totalWrites                     0                       # Total num of writes (Count)
system.generators10.avgReadLatency       5114518.850575                       # Avg latency of read requests ((Tick/Count))
system.generators10.avgWriteLatency               nan                       # Avg latency of write requests ((Tick/Count))
system.generators10.readBW               55670536.008878                       # Read bandwidth ((Byte/Second))
system.generators10.writeBW                         0                       # Write bandwidth ((Byte/Second))
system.generators10.power_state.pwrStateResidencyTicks::UNDEFINED    100017000                       # Cumulative time (in ticks) in various power states (Tick)
system.generators11.numSuppressed                   0                       # Number of suppressed packets to non-memory space (Count)
system.generators11.numPackets                     93                       # Number of packets generated (Count)
system.generators11.numRetries                    180                       # Number of retries (Count)
system.generators11.retryTicks               99904603                       # Time spent waiting due to back-pressure (Tick)
system.generators11.bytesRead                    5568                       # Number of bytes read (Byte)
system.generators11.bytesWritten                    0                       # Number of bytes written (Byte)
system.generators11.totalReadLatency        440568836                       # Total latency of read requests (Tick)
system.generators11.totalWriteLatency               0                       # Total latency of write requests (Tick)
system.generators11.totalReads                     87                       # Total num of reads (Count)
system.generators11.totalWrites                     0                       # Total num of writes (Count)
system.generators11.avgReadLatency       5064009.609195                       # Avg latency of read requests ((Tick/Count))
system.generators11.avgWriteLatency               nan                       # Avg latency of write requests ((Tick/Count))
system.generators11.readBW               55670536.008878                       # Read bandwidth ((Byte/Second))
system.generators11.writeBW                         0                       # Write bandwidth ((Byte/Second))
system.generators11.power_state.pwrStateResidencyTicks::UNDEFINED    100017000                       # Cumulative time (in ticks) in various power states (Tick)
system.generators12.numSuppressed                   0                       # Number of suppressed packets to non-memory space (Count)
system.generators12.numPackets                     93                       # Number of packets generated (Count)
system.generators12.numRetries                    180                       # Number of retries (Count)
system.generators12.retryTicks               99900603                       # Time spent waiting due to back-pressure (Tick)
system.generators12.bytesRead                    5568                       # Number of bytes read (Byte)
system.generators12.bytesWritten                    0                       # Number of bytes written (Byte)
system.generators12.totalReadLatency        440008933                       # Total latency of read requests (Tick)
system.generators12.totalWriteLatency               0                       # Total latency of write requests (Tick)
system.generators12.totalReads                     87                       # Total num of reads (Count)
system.generators12.totalWrites                     0                       # Total num of writes (Count)
system.generators12.avgReadLatency       5057573.942529                       # Avg latency of read requests ((Tick/Count))
system.generators12.avgWriteLatency               nan                       # Avg latency of write requests ((Tick/Count))
system.generators12.readBW               55670536.008878                       # Read bandwidth ((Byte/Second))
system.generators12.writeBW                         0                       # Write bandwidth ((Byte/Second))
system.generators12.power_state.pwrStateResidencyTicks::UNDEFINED    100017000                       # Cumulative time (in ticks) in various power states (Tick)
system.generators13.numSuppressed                   0                       # Number of suppressed packets to non-memory space (Count)
system.generators13.numPackets                     93                       # Number of packets generated (Count)
system.generators13.numRetries                    180                       # Number of retries (Count)
system.generators13.retryTicks               99896603                       # Time spent waiting due to back-pressure (Tick)
system.generators13.bytesRead                    5632                       # Number of bytes read (Byte)
system.generators13.bytesWritten                    0                       # Number of bytes written (Byte)
system.generators13.totalReadLatency        450986637                       # Total latency of read requests (Tick)
system.generators13.totalWriteLatency               0                       # Total latency of write requests (Tick)
system.generators13.totalReads                     88                       # Total num of reads (Count)
system.generators13.totalWrites                     0                       # Total num of writes (Count)
system.generators13.avgReadLatency       5124848.147727                       # Avg latency of read requests ((Tick/Count))
system.generators13.avgWriteLatency               nan                       # Avg latency of write requests ((Tick/Count))
system.generators13.readBW               56310427.227371                       # Read bandwidth ((Byte/Second))
system.generators13.writeBW                         0                       # Write bandwidth ((Byte/Second))
system.generators13.power_state.pwrStateResidencyTicks::UNDEFINED    100017000                       # Cumulative time (in ticks) in various power states (Tick)
system.generators14.numSuppressed                   0                       # Number of suppressed packets to non-memory space (Count)
system.generators14.numPackets                     93                       # Number of packets generated (Count)
system.generators14.numRetries                    180                       # Number of retries (Count)
system.generators14.retryTicks               99882603                       # Time spent waiting due to back-pressure (Tick)
system.generators14.bytesRead                    5568                       # Number of bytes read (Byte)
system.generators14.bytesWritten                    0                       # Number of bytes written (Byte)
system.generators14.totalReadLatency        442676736                       # Total latency of read requests (Tick)
system.generators14.totalWriteLatency               0                       # Total latency of write requests (Tick)
system.generators14.totalReads                     87                       # Total num of reads (Count)
system.generators14.totalWrites                     0                       # Total num of writes (Count)
system.generators14.avgReadLatency       5088238.344828                       # Avg latency of read requests ((Tick/Count))
system.generators14.avgWriteLatency               nan                       # Avg latency of write requests ((Tick/Count))
system.generators14.readBW               55670536.008878                       # Read bandwidth ((Byte/Second))
system.generators14.writeBW                         0                       # Write bandwidth ((Byte/Second))
system.generators14.power_state.pwrStateResidencyTicks::UNDEFINED    100017000                       # Cumulative time (in ticks) in various power states (Tick)
system.generators15.numSuppressed                   0                       # Number of suppressed packets to non-memory space (Count)
system.generators15.numPackets                     93                       # Number of packets generated (Count)
system.generators15.numRetries                    180                       # Number of retries (Count)
system.generators15.retryTicks               99874603                       # Time spent waiting due to back-pressure (Tick)
system.generators15.bytesRead                    5632                       # Number of bytes read (Byte)
system.generators15.bytesWritten                    0                       # Number of bytes written (Byte)
system.generators15.totalReadLatency        448880334                       # Total latency of read requests (Tick)
system.generators15.totalWriteLatency               0                       # Total latency of write requests (Tick)
system.generators15.totalReads                     88                       # Total num of reads (Count)
system.generators15.totalWrites                     0                       # Total num of writes (Count)
system.generators15.avgReadLatency       5100912.886364                       # Avg latency of read requests ((Tick/Count))
system.generators15.avgWriteLatency               nan                       # Avg latency of write requests ((Tick/Count))
system.generators15.readBW               56310427.227371                       # Read bandwidth ((Byte/Second))
system.generators15.writeBW                         0                       # Write bandwidth ((Byte/Second))
system.generators15.power_state.pwrStateResidencyTicks::UNDEFINED    100017000                       # Cumulative time (in ticks) in various power states (Tick)
system.generators16.numSuppressed                   0                       # Number of suppressed packets to non-memory space (Count)
system.generators16.numPackets                     93                       # Number of packets generated (Count)
system.generators16.numRetries                    180                       # Number of retries (Count)
system.generators16.retryTicks               99699603                       # Time spent waiting due to back-pressure (Tick)
system.generators16.bytesRead                    5632                       # Number of bytes read (Byte)
system.generators16.bytesWritten                    0                       # Number of bytes written (Byte)
system.generators16.totalReadLatency        461081041                       # Total latency of read requests (Tick)
system.generators16.totalWriteLatency               0                       # Total latency of write requests (Tick)
system.generators16.totalReads                     88                       # Total num of reads (Count)
system.generators16.totalWrites                     0                       # Total num of writes (Count)
system.generators16.avgReadLatency       5239557.284091                       # Avg latency of read requests ((Tick/Count))
system.generators16.avgWriteLatency               nan                       # Avg latency of write requests ((Tick/Count))
system.generators16.readBW               56310427.227371                       # Read bandwidth ((Byte/Second))
system.generators16.writeBW                         0                       # Write bandwidth ((Byte/Second))
system.generators16.power_state.pwrStateResidencyTicks::UNDEFINED    100017000                       # Cumulative time (in ticks) in various power states (Tick)
system.generators17.numSuppressed                   0                       # Number of suppressed packets to non-memory space (Count)
system.generators17.numPackets                     93                       # Number of packets generated (Count)
system.generators17.numRetries                    180                       # Number of retries (Count)
system.generators17.retryTicks               99680603                       # Time spent waiting due to back-pressure (Tick)
system.generators17.bytesRead                    5632                       # Number of bytes read (Byte)
system.generators17.bytesWritten                    0                       # Number of bytes written (Byte)
system.generators17.totalReadLatency        460591141                       # Total latency of read requests (Tick)
system.generators17.totalWriteLatency               0                       # Total latency of write requests (Tick)
system.generators17.totalReads                     88                       # Total num of reads (Count)
system.generators17.totalWrites                     0                       # Total num of writes (Count)
system.generators17.avgReadLatency       5233990.238636                       # Avg latency of read requests ((Tick/Count))
system.generators17.avgWriteLatency               nan                       # Avg latency of write requests ((Tick/Count))
system.generators17.readBW               56310427.227371                       # Read bandwidth ((Byte/Second))
system.generators17.writeBW                         0                       # Write bandwidth ((Byte/Second))
system.generators17.power_state.pwrStateResidencyTicks::UNDEFINED    100017000                       # Cumulative time (in ticks) in various power states (Tick)
system.generators18.numSuppressed                   0                       # Number of suppressed packets to non-memory space (Count)
system.generators18.numPackets                     93                       # Number of packets generated (Count)
system.generators18.numRetries                    180                       # Number of retries (Count)
system.generators18.retryTicks               99668603                       # Time spent waiting due to back-pressure (Tick)
system.generators18.bytesRead                    5568                       # Number of bytes read (Byte)
system.generators18.bytesWritten                    0                       # Number of bytes written (Byte)
system.generators18.totalReadLatency        447015641                       # Total latency of read requests (Tick)
system.generators18.totalWriteLatency               0                       # Total latency of write requests (Tick)
system.generators18.totalReads                     87                       # Total num of reads (Count)
system.generators18.totalWrites                     0                       # Total num of writes (Count)
system.generators18.avgReadLatency       5138110.816092                       # Avg latency of read requests ((Tick/Count))
system.generators18.avgWriteLatency               nan                       # Avg latency of write requests ((Tick/Count))
system.generators18.readBW               55670536.008878                       # Read bandwidth ((Byte/Second))
system.generators18.writeBW                         0                       # Write bandwidth ((Byte/Second))
system.generators18.power_state.pwrStateResidencyTicks::UNDEFINED    100017000                       # Cumulative time (in ticks) in various power states (Tick)
system.generators19.numSuppressed                   0                       # Number of suppressed packets to non-memory space (Count)
system.generators19.numPackets                     93                       # Number of packets generated (Count)
system.generators19.numRetries                    180                       # Number of retries (Count)
system.generators19.retryTicks               99662603                       # Time spent waiting due to back-pressure (Tick)
system.generators19.bytesRead                    5568                       # Number of bytes read (Byte)
system.generators19.bytesWritten                    0                       # Number of bytes written (Byte)
system.generators19.totalReadLatency        453287141                       # Total latency of read requests (Tick)
system.generators19.totalWriteLatency               0                       # Total latency of write requests (Tick)
system.generators19.totalReads                     87                       # Total num of reads (Count)
system.generators19.totalWrites                     0                       # Total num of writes (Count)
system.generators19.avgReadLatency       5210197.022989                       # Avg latency of read requests ((Tick/Count))
system.generators19.avgWriteLatency               nan                       # Avg latency of write requests ((Tick/Count))
system.generators19.readBW               55670536.008878                       # Read bandwidth ((Byte/Second))
system.generators19.writeBW                         0                       # Write bandwidth ((Byte/Second))
system.generators19.power_state.pwrStateResidencyTicks::UNDEFINED    100017000                       # Cumulative time (in ticks) in various power states (Tick)
system.generators2.numSuppressed                    0                       # Number of suppressed packets to non-memory space (Count)
system.generators2.numPackets                      93                       # Number of packets generated (Count)
system.generators2.numRetries                     180                       # Number of retries (Count)
system.generators2.retryTicks                99997603                       # Time spent waiting due to back-pressure (Tick)
system.generators2.bytesRead                     5632                       # Number of bytes read (Byte)
system.generators2.bytesWritten                     0                       # Number of bytes written (Byte)
system.generators2.totalReadLatency         460448238                       # Total latency of read requests (Tick)
system.generators2.totalWriteLatency                0                       # Total latency of write requests (Tick)
system.generators2.totalReads                      88                       # Total num of reads (Count)
system.generators2.totalWrites                      0                       # Total num of writes (Count)
system.generators2.avgReadLatency        5232366.340909                       # Avg latency of read requests ((Tick/Count))
system.generators2.avgWriteLatency                nan                       # Avg latency of write requests ((Tick/Count))
system.generators2.readBW                56310427.227371                       # Read bandwidth ((Byte/Second))
system.generators2.writeBW                          0                       # Write bandwidth ((Byte/Second))
system.generators2.power_state.pwrStateResidencyTicks::UNDEFINED    100017000                       # Cumulative time (in ticks) in various power states (Tick)
[...]
system.membus.snoopTraffic                          0                       # Total snoop traffic (Byte)
system.membus.snoopFanout::samples              11518                       # Request fanout histogram (Count)
system.membus.snoopFanout::mean                     0                       # Request fanout histogram (Count)
system.membus.snoopFanout::stdev                    0                       # Request fanout histogram (Count)
system.membus.snoopFanout::underflows               0      0.00%      0.00% # Request fanout histogram (Count)
system.membus.snoopFanout::0                    11518    100.00%    100.00% # Request fanout histogram (Count)
system.membus.snoopFanout::overflows                0      0.00%    100.00% # Request fanout histogram (Count)
system.membus.snoopFanout::min_value                0                       # Request fanout histogram (Count)
system.membus.snoopFanout::max_value                0                       # Request fanout histogram (Count)
system.membus.snoopFanout::total                11518                       # Request fanout histogram (Count)
system.membus.power_state.pwrStateResidencyTicks::UNDEFINED    100017000                       # Cumulative time (in ticks) in various power states (Tick)
system.membus.reqLayer0.occupancy             2583702                       # Layer occupancy (ticks) (Tick)
system.membus.reqLayer0.utilization               0.0                       # Layer utilization (Ratio)
system.membus.respLayer0.occupancy              42565                       # Layer occupancy (ticks) (Tick)
system.membus.respLayer0.utilization              0.0                       # Layer utilization (Ratio)
system.membus.respLayer1.occupancy              42565                       # Layer occupancy (ticks) (Tick)
system.membus.respLayer1.utilization              0.0                       # Layer utilization (Ratio)
system.membus.respLayer10.occupancy             42563                       # Layer occupancy (ticks) (Tick)
system.membus.respLayer10.utilization             0.0                       # Layer utilization (Ratio)
system.membus.respLayer11.occupancy             42267                       # Layer occupancy (ticks) (Tick)
system.membus.respLayer11.utilization             0.0                       # Layer utilization (Ratio)
system.membus.respLayer12.occupancy             42370                       # Layer occupancy (ticks) (Tick)
system.membus.respLayer12.utilization             0.0                       # Layer utilization (Ratio)
system.membus.respLayer13.occupancy             42666                       # Layer occupancy (ticks) (Tick)
system.membus.respLayer13.utilization             0.0                       # Layer utilization (Ratio)
system.membus.respLayer14.occupancy             42367                       # Layer occupancy (ticks) (Tick)
system.membus.respLayer14.utilization             0.0                       # Layer utilization (Ratio)
system.membus.respLayer15.occupancy             42769                       # Layer occupancy (ticks) (Tick)
system.membus.respLayer15.utilization             0.0                       # Layer utilization (Ratio)
system.membus.respLayer16.occupancy             42462                       # Layer occupancy (ticks) (Tick)
system.membus.respLayer16.utilization             0.0                       # Layer utilization (Ratio)
system.membus.respLayer17.occupancy             42762                       # Layer occupancy (ticks) (Tick)
system.membus.respLayer17.utilization             0.0                       # Layer utilization (Ratio)
system.membus.respLayer18.occupancy             42062                       # Layer occupancy (ticks) (Tick)
system.membus.respLayer18.utilization             0.0                       # Layer utilization (Ratio)
system.membus.respLayer19.occupancy             41962                       # Layer occupancy (ticks) (Tick)
system.membus.respLayer19.utilization             0.0                       # Layer utilization (Ratio)
system.membus.respLayer2.occupancy              43065                       # Layer occupancy (ticks) (Tick)
system.membus.respLayer2.utilization              0.0                       # Layer utilization (Ratio)
system.membus.respLayer20.occupancy             42462                       # Layer occupancy (ticks) (Tick)
system.membus.respLayer20.utilization             0.0                       # Layer utilization (Ratio)
system.membus.respLayer21.occupancy             42762                       # Layer occupancy (ticks) (Tick)
system.membus.respLayer21.utilization             0.0                       # Layer utilization (Ratio)
system.membus.respLayer22.occupancy             42562                       # Layer occupancy (ticks) (Tick)
system.membus.respLayer22.utilization             0.0                       # Layer utilization (Ratio)
system.membus.respLayer23.occupancy             42362                       # Layer occupancy (ticks) (Tick)
system.membus.respLayer23.utilization             0.0                       # Layer utilization (Ratio)
system.membus.respLayer24.occupancy             43162                       # Layer occupancy (ticks) (Tick)
system.membus.respLayer24.utilization             0.0                       # Layer utilization (Ratio)
system.membus.respLayer25.occupancy             42762                       # Layer occupancy (ticks) (Tick)
system.membus.respLayer25.utilization             0.0                       # Layer utilization (Ratio)
system.membus.respLayer26.occupancy             42663                       # Layer occupancy (ticks) (Tick)
system.membus.respLayer26.utilization             0.0                       # Layer utilization (Ratio)
system.membus.respLayer27.occupancy             42363                       # Layer occupancy (ticks) (Tick)
system.membus.respLayer27.utilization             0.0                       # Layer utilization (Ratio)
system.membus.respLayer28.occupancy             43162                       # Layer occupancy (ticks) (Tick)
system.membus.respLayer28.utilization             0.0                       # Layer utilization (Ratio)
system.membus.respLayer29.occupancy             43262                       # Layer occupancy (ticks) (Tick)
system.membus.respLayer29.utilization             0.0                       # Layer utilization (Ratio)
system.membus.respLayer3.occupancy              42865                       # Layer occupancy (ticks) (Tick)
system.membus.respLayer3.utilization              0.0                       # Layer utilization (Ratio)
system.membus.respLayer30.occupancy             42864                       # Layer occupancy (ticks) (Tick)
system.membus.respLayer30.utilization             0.0                       # Layer utilization (Ratio)
system.membus.respLayer31.occupancy             42464                       # Layer occupancy (ticks) (Tick)
system.membus.respLayer31.utilization             0.0                       # Layer utilization (Ratio)
system.membus.respLayer32.occupancy             42565                       # Layer occupancy (ticks) (Tick)
system.membus.respLayer32.utilization             0.0                       # Layer utilization (Ratio)
system.membus.respLayer33.occupancy             42362                       # Layer occupancy (ticks) (Tick)
system.membus.respLayer33.utilization             0.0                       # Layer utilization (Ratio)
system.membus.respLayer34.occupancy             43062                       # Layer occupancy (ticks) (Tick)
system.membus.respLayer34.utilization             0.0                       # Layer utilization (Ratio)
system.membus.respLayer35.occupancy             42962                       # Layer occupancy (ticks) (Tick)
system.membus.respLayer35.utilization             0.0                       # Layer utilization (Ratio)
system.membus.respLayer36.occupancy             42662                       # Layer occupancy (ticks) (Tick)
system.membus.respLayer36.utilization             0.0                       # Layer utilization (Ratio)
system.membus.respLayer37.occupancy             42362                       # Layer occupancy (ticks) (Tick)
system.membus.respLayer37.utilization             0.0                       # Layer utilization (Ratio)
system.membus.respLayer38.occupancy             43062                       # Layer occupancy (ticks) (Tick)
system.membus.respLayer38.utilization             0.0                       # Layer utilization (Ratio)
system.membus.respLayer39.occupancy             42462                       # Layer occupancy (ticks) (Tick)
system.membus.respLayer39.utilization             0.0                       # Layer utilization (Ratio)
system.membus.respLayer4.occupancy              42765                       # Layer occupancy (ticks) (Tick)
system.membus.respLayer4.utilization              0.0                       # Layer utilization (Ratio)
system.membus.respLayer40.occupancy             42962                       # Layer occupancy (ticks) (Tick)
system.membus.respLayer40.utilization             0.0                       # Layer utilization (Ratio)
system.membus.respLayer41.occupancy             42963                       # Layer occupancy (ticks) (Tick)
system.membus.respLayer41.utilization             0.0                       # Layer utilization (Ratio)
system.membus.respLayer42.occupancy             43264                       # Layer occupancy (ticks) (Tick)
system.membus.respLayer42.utilization             0.0                       # Layer utilization (Ratio)
system.membus.respLayer43.occupancy             42962                       # Layer occupancy (ticks) (Tick)
system.membus.respLayer43.utilization             0.0                       # Layer utilization (Ratio)
system.membus.respLayer44.occupancy             43062                       # Layer occupancy (ticks) (Tick)
system.membus.respLayer44.utilization             0.0                       # Layer utilization (Ratio)
system.membus.respLayer45.occupancy             42962                       # Layer occupancy (ticks) (Tick)
system.membus.respLayer45.utilization             0.0                       # Layer utilization (Ratio)
system.membus.respLayer46.occupancy             42663                       # Layer occupancy (ticks) (Tick)
system.membus.respLayer46.utilization             0.0                       # Layer utilization (Ratio)
system.membus.respLayer47.occupancy             42962                       # Layer occupancy (ticks) (Tick)
system.membus.respLayer47.utilization             0.0                       # Layer utilization (Ratio)
system.membus.respLayer48.occupancy             42765                       # Layer occupancy (ticks) (Tick)
system.membus.respLayer48.utilization             0.0                       # Layer utilization (Ratio)
system.membus.respLayer49.occupancy             43165                       # Layer occupancy (ticks) (Tick)
system.membus.respLayer49.utilization             0.0                       # Layer utilization (Ratio)
system.membus.respLayer5.occupancy              41965                       # Layer occupancy (ticks) (Tick)
system.membus.respLayer5.utilization              0.0                       # Layer utilization (Ratio)
system.membus.respLayer50.occupancy             43165                       # Layer occupancy (ticks) (Tick)
system.membus.respLayer50.utilization             0.0                       # Layer utilization (Ratio)
system.membus.respLayer51.occupancy             43265                       # Layer occupancy (ticks) (Tick)
system.membus.respLayer51.utilization             0.0                       # Layer utilization (Ratio)
system.membus.respLayer52.occupancy             43265                       # Layer occupancy (ticks) (Tick)
system.membus.respLayer52.utilization             0.0                       # Layer utilization (Ratio)
system.membus.respLayer53.occupancy             42565                       # Layer occupancy (ticks) (Tick)
system.membus.respLayer53.utilization             0.0                       # Layer utilization (Ratio)
system.membus.respLayer54.occupancy             43265                       # Layer occupancy (ticks) (Tick)
system.membus.respLayer54.utilization             0.0                       # Layer utilization (Ratio)
system.membus.respLayer55.occupancy             43365                       # Layer occupancy (ticks) (Tick)
system.membus.respLayer55.utilization             0.0                       # Layer utilization (Ratio)
system.membus.respLayer56.occupancy             43166                       # Layer occupancy (ticks) (Tick)
system.membus.respLayer56.utilization             0.0                       # Layer utilization (Ratio)
system.membus.respLayer57.occupancy             43065                       # Layer occupancy (ticks) (Tick)
system.membus.respLayer57.utilization             0.0                       # Layer utilization (Ratio)
system.membus.respLayer58.occupancy             42667                       # Layer occupancy (ticks) (Tick)
system.membus.respLayer58.utilization             0.0                       # Layer utilization (Ratio)
system.membus.respLayer59.occupancy             43265                       # Layer occupancy (ticks) (Tick)
system.membus.respLayer59.utilization             0.0                       # Layer utilization (Ratio)
system.membus.respLayer6.occupancy              43065                       # Layer occupancy (ticks) (Tick)
system.membus.respLayer6.utilization              0.0                       # Layer utilization (Ratio)
system.membus.respLayer60.occupancy             43166                       # Layer occupancy (ticks) (Tick)
system.membus.respLayer60.utilization             0.0                       # Layer utilization (Ratio)
system.membus.respLayer61.occupancy             43165                       # Layer occupancy (ticks) (Tick)
system.membus.respLayer61.utilization             0.0                       # Layer utilization (Ratio)
system.membus.respLayer62.occupancy             43265                       # Layer occupancy (ticks) (Tick)
system.membus.respLayer62.utilization             0.0                       # Layer utilization (Ratio)
system.membus.respLayer63.occupancy             42863                       # Layer occupancy (ticks) (Tick)
system.membus.respLayer63.utilization             0.0                       # Layer utilization (Ratio)
system.membus.respLayer7.occupancy              42865                       # Layer occupancy (ticks) (Tick)
system.membus.respLayer7.utilization              0.0                       # Layer utilization (Ratio)
system.membus.respLayer8.occupancy              42770                       # Layer occupancy (ticks) (Tick)
system.membus.respLayer8.utilization              0.0                       # Layer utilization (Ratio)
system.membus.respLayer9.occupancy              42366                       # Layer occupancy (ticks) (Tick)
system.membus.respLayer9.utilization              0.0                       # Layer utilization (Ratio)
system.membus.snoop_filter.totRequests              0                       # Total number of requests made to the snoop filter. (Count)
system.membus.snoop_filter.hitSingleRequests            0                       # Number of requests hitting in the snoop filter with a single holder of the requested data. (Count)
system.membus.snoop_filter.hitMultiRequests            0                       # Number of requests hitting in the snoop filter with multiple (>1) holders of the requested data. (Count)
system.membus.snoop_filter.totSnoops                0                       # Total number of snoops made to the snoop filter. (Count)
system.membus.snoop_filter.hitSingleSnoops            0                       # Number of snoops hitting in the snoop filter with a single holder of the requested data. (Count)
system.membus.snoop_filter.hitMultiSnoops            0                       # Number of snoops hitting in the snoop filter with multiple (>1) holders of the requested data. (Count)
system.membusPolManFarMem.transDist::ReadReq         5668                       # Transaction distribution (Count)
system.membusPolManFarMem.transDist::ReadResp         5655                       # Transaction distribution (Count)
system.membusPolManFarMem.pktCount_system.mem_ctrl.far_req_port::system.far_mem_ctrl.port        11323                       # Packet count per connected requestor and responder (Count)
system.membusPolManFarMem.pktSize_system.mem_ctrl.far_req_port::system.far_mem_ctrl.port       361920                       # Cumulative packet size per connected requestor and responder (Byte)
system.membusPolManFarMem.snoops                    0                       # Total snoops (Count)
system.membusPolManFarMem.snoopTraffic              0                       # Total snoop traffic (Byte)
system.membusPolManFarMem.snoopFanout::samples         5668                       # Request fanout histogram (Count)
system.membusPolManFarMem.snoopFanout::mean            0                       # Request fanout histogram (Count)
system.membusPolManFarMem.snoopFanout::stdev            0                       # Request fanout histogram (Count)
system.membusPolManFarMem.snoopFanout::underflows            0      0.00%      0.00% # Request fanout histogram (Count)
system.membusPolManFarMem.snoopFanout::0         5668    100.00%    100.00% # Request fanout histogram (Count)
system.membusPolManFarMem.snoopFanout::overflows            0      0.00%    100.00% # Request fanout histogram (Count)
system.membusPolManFarMem.snoopFanout::min_value            0                       # Request fanout histogram (Count)
system.membusPolManFarMem.snoopFanout::max_value            0                       # Request fanout histogram (Count)
system.membusPolManFarMem.snoopFanout::total         5668                       # Request fanout histogram (Count)
system.membusPolManFarMem.power_state.pwrStateResidencyTicks::UNDEFINED    100017000                       # Cumulative time (in ticks) in various power states (Tick)
system.membusPolManFarMem.reqLayer0.occupancy      1413145                       # Layer occupancy (ticks) (Tick)
system.membusPolManFarMem.reqLayer0.utilization          0.0                       # Layer utilization (Ratio)
system.membusPolManFarMem.respLayer0.occupancy      2856238                       # Layer occupancy (ticks) (Tick)
system.membusPolManFarMem.respLayer0.utilization          0.0                       # Layer utilization (Ratio)
system.membusPolManFarMem.snoop_filter.totRequests            0                       # Total number of requests made to the snoop filter. (Count)
system.membusPolManFarMem.snoop_filter.hitSingleRequests            0                       # Number of requests hitting in the snoop filter with a single holder of the requested data. (Count)
system.membusPolManFarMem.snoop_filter.hitMultiRequests            0                       # Number of requests hitting in the snoop filter with multiple (>1) holders of the requested data. (Count)
system.membusPolManFarMem.snoop_filter.totSnoops            0                       # Total number of snoops made to the snoop filter. (Count)
system.membusPolManFarMem.snoop_filter.hitSingleSnoops            0                       # Number of snoops hitting in the snoop filter with a single holder of the requested data. (Count)
system.membusPolManFarMem.snoop_filter.hitMultiSnoops            0                       # Number of snoops hitting in the snoop filter with multiple (>1) holders of the requested data. (Count)
system.workload.inst.arm                            0                       # number of arm instructions executed (Count)
system.workload.inst.quiesce                        0                       # number of quiesce instructions executed (Count)

---------- End Simulation Statistics   ----------
