
---------- Begin Simulation Statistics ----------
simSeconds                                   0.000100                       # Number of seconds simulated (Second)
simTicks                                     99999999                       # Number of ticks simulated (Tick)
finalTick                                    99999999                       # Number of ticks from beginning of simulation (restored from checkpoints and never reset) (Tick)
simFreq                                  1000000000000                       # The number of ticks per simulated second ((Tick/Second))
hostSeconds                                      0.29                       # Real time elapsed on the host (Second)
hostTickRate                                348026331                       # The number of ticks simulated per host second (ticks/s) ((Tick/Second))
hostMemory                                    8499876                       # Number of bytes of host memory used (Byte)
system.clk_domain.clock                           200                       # Clock period in ticks (Tick)
system.clk_domain.voltage_domain.voltage            1                       # Voltage in Volts (Volt)
system.far_mem_ctrl0.avgPriority_writebacks::samples      5716.00                       # Average QoS priority value for accepted requests (Count)
system.far_mem_ctrl0.priorityMinLatency  0.000000317492                       # per QoS priority minimum request to response latency (Second)
system.far_mem_ctrl0.priorityMaxLatency  0.000002480304                       # per QoS priority maximum request to response latency (Second)
system.far_mem_ctrl0.numReadWriteTurnArounds            0                       # Number of turnarounds from READ to WRITE (Count)
system.far_mem_ctrl0.numWriteReadTurnArounds            0                       # Number of turnarounds from WRITE to READ (Count)
system.far_mem_ctrl0.numStayReadState           17071                       # Number of times bus staying in READ state (Count)
system.far_mem_ctrl0.numStayWriteState              0                       # Number of times bus staying in WRITE state (Count)
system.far_mem_ctrl0.readReqs                    5716                       # Number of read requests accepted (Count)
system.far_mem_ctrl0.writeReqs                      0                       # Number of write requests accepted (Count)
system.far_mem_ctrl0.readBursts                  5716                       # Number of controller read bursts, including those serviced by the write queue (Count)
system.far_mem_ctrl0.writeBursts                    0                       # Number of controller write bursts, including those merged in the write queue (Count)
system.far_mem_ctrl0.servicedByWrQ                  0                       # Number of controller read bursts serviced by the write queue (Count)
system.far_mem_ctrl0.mergedWrBursts                 0                       # Number of controller write bursts merged with an existing one (Count)
system.far_mem_ctrl0.neitherReadNorWriteReqs            0                       # Number of requests that are neither read nor write (Count)
system.far_mem_ctrl0.avgRdQLen                  17.88                       # Average read queue length when enqueuing ((Count/Tick))
system.far_mem_ctrl0.avgWrQLen                   0.00                       # Average write queue length when enqueuing ((Count/Tick))
system.far_mem_ctrl0.numRdRetry                     0                       # Number of times read queue was full causing retry (Count)
system.far_mem_ctrl0.numWrRetry                     0                       # Number of times write queue was full causing retry (Count)
system.far_mem_ctrl0.readPktSize::0                 0                       # Read request sizes (log2) (Count)
system.far_mem_ctrl0.readPktSize::1                 0                       # Read request sizes (log2) (Count)
system.far_mem_ctrl0.readPktSize::2                 0                       # Read request sizes (log2) (Count)
system.far_mem_ctrl0.readPktSize::3                 0                       # Read request sizes (log2) (Count)
system.far_mem_ctrl0.readPktSize::4                 0                       # Read request sizes (log2) (Count)
system.far_mem_ctrl0.readPktSize::5                 0                       # Read request sizes (log2) (Count)
system.far_mem_ctrl0.readPktSize::6              5716                       # Read request sizes (log2) (Count)
system.far_mem_ctrl0.writePktSize::0                0                       # Write request sizes (log2) (Count)
system.far_mem_ctrl0.writePktSize::1                0                       # Write request sizes (log2) (Count)
system.far_mem_ctrl0.writePktSize::2                0                       # Write request sizes (log2) (Count)
system.far_mem_ctrl0.writePktSize::3                0                       # Write request sizes (log2) (Count)
system.far_mem_ctrl0.writePktSize::4                0                       # Write request sizes (log2) (Count)
system.far_mem_ctrl0.writePktSize::5                0                       # Write request sizes (log2) (Count)
system.far_mem_ctrl0.writePktSize::6                0                       # Write request sizes (log2) (Count)
system.far_mem_ctrl0.rdQLenPdf::0                   3                       # What read queue length does an incoming req see (Count)
system.far_mem_ctrl0.rdQLenPdf::1                  10                       # What read queue length does an incoming req see (Count)
system.far_mem_ctrl0.rdQLenPdf::2                  16                       # What read queue length does an incoming req see (Count)
system.far_mem_ctrl0.rdQLenPdf::3                  26                       # What read queue length does an incoming req see (Count)
system.far_mem_ctrl0.rdQLenPdf::4                  38                       # What read queue length does an incoming req see (Count)
system.far_mem_ctrl0.rdQLenPdf::5                  62                       # What read queue length does an incoming req see (Count)
system.far_mem_ctrl0.rdQLenPdf::6                 110                       # What read queue length does an incoming req see (Count)
system.far_mem_ctrl0.rdQLenPdf::7                 187                       # What read queue length does an incoming req see (Count)
system.far_mem_ctrl0.rdQLenPdf::8                 244                       # What read queue length does an incoming req see (Count)
system.far_mem_ctrl0.rdQLenPdf::9                 325                       # What read queue length does an incoming req see (Count)
system.far_mem_ctrl0.rdQLenPdf::10                387                       # What read queue length does an incoming req see (Count)
system.far_mem_ctrl0.rdQLenPdf::11                400                       # What read queue length does an incoming req see (Count)
system.far_mem_ctrl0.rdQLenPdf::12                419                       # What read queue length does an incoming req see (Count)
system.far_mem_ctrl0.rdQLenPdf::13                470                       # What read queue length does an incoming req see (Count)
system.far_mem_ctrl0.rdQLenPdf::14                484                       # What read queue length does an incoming req see (Count)
system.far_mem_ctrl0.rdQLenPdf::15                505                       # What read queue length does an incoming req see (Count)
system.far_mem_ctrl0.rdQLenPdf::16                461                       # What read queue length does an incoming req see (Count)
system.far_mem_ctrl0.rdQLenPdf::17                423                       # What read queue length does an incoming req see (Count)
system.far_mem_ctrl0.rdQLenPdf::18                357                       # What read queue length does an incoming req see (Count)
system.far_mem_ctrl0.rdQLenPdf::19                255                       # What read queue length does an incoming req see (Count)
system.far_mem_ctrl0.rdQLenPdf::20                169                       # What read queue length does an incoming req see (Count)
system.far_mem_ctrl0.rdQLenPdf::21                 99                       # What read queue length does an incoming req see (Count)
system.far_mem_ctrl0.rdQLenPdf::22                 40                       # What read queue length does an incoming req see (Count)
system.far_mem_ctrl0.rdQLenPdf::23                 30                       # What read queue length does an incoming req see (Count)
system.far_mem_ctrl0.rdQLenPdf::24                 17                       # What read queue length does an incoming req see (Count)
system.far_mem_ctrl0.rdQLenPdf::25                 15                       # What read queue length does an incoming req see (Count)
system.far_mem_ctrl0.rdQLenPdf::26                 15                       # What read queue length does an incoming req see (Count)
system.far_mem_ctrl0.rdQLenPdf::27                 10                       # What read queue length does an incoming req see (Count)
system.far_mem_ctrl0.rdQLenPdf::28                 22                       # What read queue length does an incoming req see (Count)
system.far_mem_ctrl0.rdQLenPdf::29                  4                       # What read queue length does an incoming req see (Count)
system.far_mem_ctrl0.rdQLenPdf::30                  4                       # What read queue length does an incoming req see (Count)
system.far_mem_ctrl0.rdQLenPdf::31                  5                       # What read queue length does an incoming req see (Count)
system.far_mem_ctrl0.rdQLenPdf::32                  6                       # What read queue length does an incoming req see (Count)
system.far_mem_ctrl0.rdQLenPdf::33                  5                       # What read queue length does an incoming req see (Count)
system.far_mem_ctrl0.rdQLenPdf::34                  4                       # What read queue length does an incoming req see (Count)
system.far_mem_ctrl0.rdQLenPdf::35                  6                       # What read queue length does an incoming req see (Count)
system.far_mem_ctrl0.rdQLenPdf::36                  9                       # What read queue length does an incoming req see (Count)
system.far_mem_ctrl0.rdQLenPdf::37                  9                       # What read queue length does an incoming req see (Count)
system.far_mem_ctrl0.rdQLenPdf::38                  7                       # What read queue length does an incoming req see (Count)
system.far_mem_ctrl0.rdQLenPdf::39                  7                       # What read queue length does an incoming req see (Count)
system.far_mem_ctrl0.rdQLenPdf::40                  3                       # What read queue length does an incoming req see (Count)
system.far_mem_ctrl0.rdQLenPdf::41                  6                       # What read queue length does an incoming req see (Count)
system.far_mem_ctrl0.rdQLenPdf::42                  6                       # What read queue length does an incoming req see (Count)
system.far_mem_ctrl0.rdQLenPdf::43                  3                       # What read queue length does an incoming req see (Count)
system.far_mem_ctrl0.rdQLenPdf::44                  6                       # What read queue length does an incoming req see (Count)
system.far_mem_ctrl0.rdQLenPdf::45                  2                       # What read queue length does an incoming req see (Count)
system.far_mem_ctrl0.rdQLenPdf::46                  4                       # What read queue length does an incoming req see (Count)
system.far_mem_ctrl0.rdQLenPdf::47                  5                       # What read queue length does an incoming req see (Count)
system.far_mem_ctrl0.rdQLenPdf::48                  9                       # What read queue length does an incoming req see (Count)
system.far_mem_ctrl0.rdQLenPdf::49                  2                       # What read queue length does an incoming req see (Count)
system.far_mem_ctrl0.rdQLenPdf::50                  1                       # What read queue length does an incoming req see (Count)
system.far_mem_ctrl0.rdQLenPdf::51                  3                       # What read queue length does an incoming req see (Count)
system.far_mem_ctrl0.rdQLenPdf::52                  1                       # What read queue length does an incoming req see (Count)
system.far_mem_ctrl0.rdQLenPdf::53                  0                       # What read queue length does an incoming req see (Count)
system.far_mem_ctrl0.rdQLenPdf::54                  0                       # What read queue length does an incoming req see (Count)
system.far_mem_ctrl0.rdQLenPdf::55                  0                       # What read queue length does an incoming req see (Count)
system.far_mem_ctrl0.rdQLenPdf::56                  0                       # What read queue length does an incoming req see (Count)
system.far_mem_ctrl0.rdQLenPdf::57                  0                       # What read queue length does an incoming req see (Count)
system.far_mem_ctrl0.rdQLenPdf::58                  0                       # What read queue length does an incoming req see (Count)
system.far_mem_ctrl0.rdQLenPdf::59                  0                       # What read queue length does an incoming req see (Count)
system.far_mem_ctrl0.rdQLenPdf::60                  0                       # What read queue length does an incoming req see (Count)
system.far_mem_ctrl0.rdQLenPdf::61                  0                       # What read queue length does an incoming req see (Count)
system.far_mem_ctrl0.rdQLenPdf::62                  0                       # What read queue length does an incoming req see (Count)
system.far_mem_ctrl0.rdQLenPdf::63                  0                       # What read queue length does an incoming req see (Count)
system.far_mem_ctrl0.rdQLenPdf::64                  0                       # What read queue length does an incoming req see (Count)
system.far_mem_ctrl0.rdQLenPdf::65                  0                       # What read queue length does an incoming req see (Count)
system.far_mem_ctrl0.rdQLenPdf::66                  0                       # What read queue length does an incoming req see (Count)
system.far_mem_ctrl0.rdQLenPdf::67                  0                       # What read queue length does an incoming req see (Count)
system.far_mem_ctrl0.rdQLenPdf::68                  0                       # What read queue length does an incoming req see (Count)
system.far_mem_ctrl0.rdQLenPdf::69                  0                       # What read queue length does an incoming req see (Count)
system.far_mem_ctrl0.rdQLenPdf::70                  0                       # What read queue length does an incoming req see (Count)
system.far_mem_ctrl0.rdQLenPdf::71                  0                       # What read queue length does an incoming req see (Count)
system.far_mem_ctrl0.rdQLenPdf::72                  0                       # What read queue length does an incoming req see (Count)
system.far_mem_ctrl0.rdQLenPdf::73                  0                       # What read queue length does an incoming req see (Count)
system.far_mem_ctrl0.rdQLenPdf::74                  0                       # What read queue length does an incoming req see (Count)
system.far_mem_ctrl0.rdQLenPdf::75                  0                       # What read queue length does an incoming req see (Count)
system.far_mem_ctrl0.rdQLenPdf::76                  0                       # What read queue length does an incoming req see (Count)
system.far_mem_ctrl0.rdQLenPdf::77                  0                       # What read queue length does an incoming req see (Count)
system.far_mem_ctrl0.rdQLenPdf::78                  0                       # What read queue length does an incoming req see (Count)
system.far_mem_ctrl0.rdQLenPdf::79                  0                       # What read queue length does an incoming req see (Count)
system.far_mem_ctrl0.rdQLenPdf::80                  0                       # What read queue length does an incoming req see (Count)
system.far_mem_ctrl0.rdQLenPdf::81                  0                       # What read queue length does an incoming req see (Count)
system.far_mem_ctrl0.rdQLenPdf::82                  0                       # What read queue length does an incoming req see (Count)
system.far_mem_ctrl0.rdQLenPdf::83                  0                       # What read queue length does an incoming req see (Count)
system.far_mem_ctrl0.rdQLenPdf::84                  0                       # What read queue length does an incoming req see (Count)
system.far_mem_ctrl0.rdQLenPdf::85                  0                       # What read queue length does an incoming req see (Count)
system.far_mem_ctrl0.rdQLenPdf::86                  0                       # What read queue length does an incoming req see (Count)
system.far_mem_ctrl0.rdQLenPdf::87                  0                       # What read queue length does an incoming req see (Count)
system.far_mem_ctrl0.rdQLenPdf::88                  0                       # What read queue length does an incoming req see (Count)
system.far_mem_ctrl0.rdQLenPdf::89                  0                       # What read queue length does an incoming req see (Count)
system.far_mem_ctrl0.rdQLenPdf::90                  0                       # What read queue length does an incoming req see (Count)
system.far_mem_ctrl0.rdQLenPdf::91                  0                       # What read queue length does an incoming req see (Count)
system.far_mem_ctrl0.rdQLenPdf::92                  0                       # What read queue length does an incoming req see (Count)
system.far_mem_ctrl0.rdQLenPdf::93                  0                       # What read queue length does an incoming req see (Count)
system.far_mem_ctrl0.rdQLenPdf::94                  0                       # What read queue length does an incoming req see (Count)
system.far_mem_ctrl0.rdQLenPdf::95                  0                       # What read queue length does an incoming req see (Count)
system.far_mem_ctrl0.rdQLenPdf::96                  0                       # What read queue length does an incoming req see (Count)
system.far_mem_ctrl0.rdQLenPdf::97                  0                       # What read queue length does an incoming req see (Count)
system.far_mem_ctrl0.rdQLenPdf::98                  0                       # What read queue length does an incoming req see (Count)
system.far_mem_ctrl0.rdQLenPdf::99                  0                       # What read queue length does an incoming req see (Count)
system.far_mem_ctrl0.rdQLenPdf::100                 0                       # What read queue length does an incoming req see (Count)
system.far_mem_ctrl0.rdQLenPdf::101                 0                       # What read queue length does an incoming req see (Count)
system.far_mem_ctrl0.rdQLenPdf::102                 0                       # What read queue length does an incoming req see (Count)
system.far_mem_ctrl0.rdQLenPdf::103                 0                       # What read queue length does an incoming req see (Count)
system.far_mem_ctrl0.rdQLenPdf::104                 0                       # What read queue length does an incoming req see (Count)
system.far_mem_ctrl0.rdQLenPdf::105                 0                       # What read queue length does an incoming req see (Count)
system.far_mem_ctrl0.rdQLenPdf::106                 0                       # What read queue length does an incoming req see (Count)
system.far_mem_ctrl0.rdQLenPdf::107                 0                       # What read queue length does an incoming req see (Count)
system.far_mem_ctrl0.rdQLenPdf::108                 0                       # What read queue length does an incoming req see (Count)
system.far_mem_ctrl0.rdQLenPdf::109                 0                       # What read queue length does an incoming req see (Count)
system.far_mem_ctrl0.rdQLenPdf::110                 0                       # What read queue length does an incoming req see (Count)
system.far_mem_ctrl0.rdQLenPdf::111                 0                       # What read queue length does an incoming req see (Count)
system.far_mem_ctrl0.rdQLenPdf::112                 0                       # What read queue length does an incoming req see (Count)
system.far_mem_ctrl0.rdQLenPdf::113                 0                       # What read queue length does an incoming req see (Count)
system.far_mem_ctrl0.rdQLenPdf::114                 0                       # What read queue length does an incoming req see (Count)
system.far_mem_ctrl0.rdQLenPdf::115                 0                       # What read queue length does an incoming req see (Count)
system.far_mem_ctrl0.rdQLenPdf::116                 0                       # What read queue length does an incoming req see (Count)
system.far_mem_ctrl0.rdQLenPdf::117                 0                       # What read queue length does an incoming req see (Count)
system.far_mem_ctrl0.rdQLenPdf::118                 0                       # What read queue length does an incoming req see (Count)
system.far_mem_ctrl0.rdQLenPdf::119                 0                       # What read queue length does an incoming req see (Count)
system.far_mem_ctrl0.rdQLenPdf::120                 0                       # What read queue length does an incoming req see (Count)
system.far_mem_ctrl0.rdQLenPdf::121                 0                       # What read queue length does an incoming req see (Count)
system.far_mem_ctrl0.rdQLenPdf::122                 0                       # What read queue length does an incoming req see (Count)
system.far_mem_ctrl0.rdQLenPdf::123                 0                       # What read queue length does an incoming req see (Count)
system.far_mem_ctrl0.rdQLenPdf::124                 0                       # What read queue length does an incoming req see (Count)
system.far_mem_ctrl0.rdQLenPdf::125                 0                       # What read queue length does an incoming req see (Count)
system.far_mem_ctrl0.rdQLenPdf::126                 0                       # What read queue length does an incoming req see (Count)
system.far_mem_ctrl0.rdQLenPdf::127                 0                       # What read queue length does an incoming req see (Count)
system.far_mem_ctrl0.wrQLenPdf::0                   0                       # What write queue length does an incoming req see (Count)
system.far_mem_ctrl0.wrQLenPdf::1                   0                       # What write queue length does an incoming req see (Count)
system.far_mem_ctrl0.wrQLenPdf::2                   0                       # What write queue length does an incoming req see (Count)
system.far_mem_ctrl0.wrQLenPdf::3                   0                       # What write queue length does an incoming req see (Count)
system.far_mem_ctrl0.wrQLenPdf::4                   0                       # What write queue length does an incoming req see (Count)
system.far_mem_ctrl0.wrQLenPdf::5                   0                       # What write queue length does an incoming req see (Count)
system.far_mem_ctrl0.wrQLenPdf::6                   0                       # What write queue length does an incoming req see (Count)
system.far_mem_ctrl0.wrQLenPdf::7                   0                       # What write queue length does an incoming req see (Count)
system.far_mem_ctrl0.wrQLenPdf::8                   0                       # What write queue length does an incoming req see (Count)
system.far_mem_ctrl0.wrQLenPdf::9                   0                       # What write queue length does an incoming req see (Count)
system.far_mem_ctrl0.wrQLenPdf::10                  0                       # What write queue length does an incoming req see (Count)
system.far_mem_ctrl0.wrQLenPdf::11                  0                       # What write queue length does an incoming req see (Count)
system.far_mem_ctrl0.wrQLenPdf::12                  0                       # What write queue length does an incoming req see (Count)
system.far_mem_ctrl0.wrQLenPdf::13                  0                       # What write queue length does an incoming req see (Count)
system.far_mem_ctrl0.wrQLenPdf::14                  0                       # What write queue length does an incoming req see (Count)
system.far_mem_ctrl0.wrQLenPdf::15                  0                       # What write queue length does an incoming req see (Count)
system.far_mem_ctrl0.wrQLenPdf::16                  0                       # What write queue length does an incoming req see (Count)
system.far_mem_ctrl0.wrQLenPdf::17                  0                       # What write queue length does an incoming req see (Count)
system.far_mem_ctrl0.wrQLenPdf::18                  0                       # What write queue length does an incoming req see (Count)
system.far_mem_ctrl0.wrQLenPdf::19                  0                       # What write queue length does an incoming req see (Count)
system.far_mem_ctrl0.wrQLenPdf::20                  0                       # What write queue length does an incoming req see (Count)
system.far_mem_ctrl0.wrQLenPdf::21                  0                       # What write queue length does an incoming req see (Count)
system.far_mem_ctrl0.wrQLenPdf::22                  0                       # What write queue length does an incoming req see (Count)
system.far_mem_ctrl0.wrQLenPdf::23                  0                       # What write queue length does an incoming req see (Count)
system.far_mem_ctrl0.wrQLenPdf::24                  0                       # What write queue length does an incoming req see (Count)
system.far_mem_ctrl0.wrQLenPdf::25                  0                       # What write queue length does an incoming req see (Count)
system.far_mem_ctrl0.wrQLenPdf::26                  0                       # What write queue length does an incoming req see (Count)
system.far_mem_ctrl0.wrQLenPdf::27                  0                       # What write queue length does an incoming req see (Count)
system.far_mem_ctrl0.wrQLenPdf::28                  0                       # What write queue length does an incoming req see (Count)
system.far_mem_ctrl0.wrQLenPdf::29                  0                       # What write queue length does an incoming req see (Count)
system.far_mem_ctrl0.wrQLenPdf::30                  0                       # What write queue length does an incoming req see (Count)
system.far_mem_ctrl0.wrQLenPdf::31                  0                       # What write queue length does an incoming req see (Count)
system.far_mem_ctrl0.wrQLenPdf::32                  0                       # What write queue length does an incoming req see (Count)
system.far_mem_ctrl0.wrQLenPdf::33                  0                       # What write queue length does an incoming req see (Count)
system.far_mem_ctrl0.wrQLenPdf::34                  0                       # What write queue length does an incoming req see (Count)
system.far_mem_ctrl0.wrQLenPdf::35                  0                       # What write queue length does an incoming req see (Count)
system.far_mem_ctrl0.wrQLenPdf::36                  0                       # What write queue length does an incoming req see (Count)
system.far_mem_ctrl0.wrQLenPdf::37                  0                       # What write queue length does an incoming req see (Count)
system.far_mem_ctrl0.wrQLenPdf::38                  0                       # What write queue length does an incoming req see (Count)
system.far_mem_ctrl0.wrQLenPdf::39                  0                       # What write queue length does an incoming req see (Count)
system.far_mem_ctrl0.wrQLenPdf::40                  0                       # What write queue length does an incoming req see (Count)
system.far_mem_ctrl0.wrQLenPdf::41                  0                       # What write queue length does an incoming req see (Count)
system.far_mem_ctrl0.wrQLenPdf::42                  0                       # What write queue length does an incoming req see (Count)
system.far_mem_ctrl0.wrQLenPdf::43                  0                       # What write queue length does an incoming req see (Count)
system.far_mem_ctrl0.wrQLenPdf::44                  0                       # What write queue length does an incoming req see (Count)
system.far_mem_ctrl0.wrQLenPdf::45                  0                       # What write queue length does an incoming req see (Count)
system.far_mem_ctrl0.wrQLenPdf::46                  0                       # What write queue length does an incoming req see (Count)
system.far_mem_ctrl0.wrQLenPdf::47                  0                       # What write queue length does an incoming req see (Count)
system.far_mem_ctrl0.wrQLenPdf::48                  0                       # What write queue length does an incoming req see (Count)
system.far_mem_ctrl0.wrQLenPdf::49                  0                       # What write queue length does an incoming req see (Count)
system.far_mem_ctrl0.wrQLenPdf::50                  0                       # What write queue length does an incoming req see (Count)
system.far_mem_ctrl0.wrQLenPdf::51                  0                       # What write queue length does an incoming req see (Count)
system.far_mem_ctrl0.wrQLenPdf::52                  0                       # What write queue length does an incoming req see (Count)
system.far_mem_ctrl0.wrQLenPdf::53                  0                       # What write queue length does an incoming req see (Count)
system.far_mem_ctrl0.wrQLenPdf::54                  0                       # What write queue length does an incoming req see (Count)
system.far_mem_ctrl0.wrQLenPdf::55                  0                       # What write queue length does an incoming req see (Count)
system.far_mem_ctrl0.wrQLenPdf::56                  0                       # What write queue length does an incoming req see (Count)
system.far_mem_ctrl0.wrQLenPdf::57                  0                       # What write queue length does an incoming req see (Count)
system.far_mem_ctrl0.wrQLenPdf::58                  0                       # What write queue length does an incoming req see (Count)
system.far_mem_ctrl0.wrQLenPdf::59                  0                       # What write queue length does an incoming req see (Count)
system.far_mem_ctrl0.wrQLenPdf::60                  0                       # What write queue length does an incoming req see (Count)
system.far_mem_ctrl0.wrQLenPdf::61                  0                       # What write queue length does an incoming req see (Count)
system.far_mem_ctrl0.wrQLenPdf::62                  0                       # What write queue length does an incoming req see (Count)
system.far_mem_ctrl0.wrQLenPdf::63                  0                       # What write queue length does an incoming req see (Count)
system.far_mem_ctrl0.wrQLenPdf::64                  0                       # What write queue length does an incoming req see (Count)
system.far_mem_ctrl0.wrQLenPdf::65                  0                       # What write queue length does an incoming req see (Count)
system.far_mem_ctrl0.wrQLenPdf::66                  0                       # What write queue length does an incoming req see (Count)
system.far_mem_ctrl0.wrQLenPdf::67                  0                       # What write queue length does an incoming req see (Count)
system.far_mem_ctrl0.wrQLenPdf::68                  0                       # What write queue length does an incoming req see (Count)
system.far_mem_ctrl0.wrQLenPdf::69                  0                       # What write queue length does an incoming req see (Count)
system.far_mem_ctrl0.wrQLenPdf::70                  0                       # What write queue length does an incoming req see (Count)
system.far_mem_ctrl0.wrQLenPdf::71                  0                       # What write queue length does an incoming req see (Count)
system.far_mem_ctrl0.wrQLenPdf::72                  0                       # What write queue length does an incoming req see (Count)
system.far_mem_ctrl0.wrQLenPdf::73                  0                       # What write queue length does an incoming req see (Count)
system.far_mem_ctrl0.wrQLenPdf::74                  0                       # What write queue length does an incoming req see (Count)
system.far_mem_ctrl0.wrQLenPdf::75                  0                       # What write queue length does an incoming req see (Count)
system.far_mem_ctrl0.wrQLenPdf::76                  0                       # What write queue length does an incoming req see (Count)
system.far_mem_ctrl0.wrQLenPdf::77                  0                       # What write queue length does an incoming req see (Count)
system.far_mem_ctrl0.wrQLenPdf::78                  0                       # What write queue length does an incoming req see (Count)
system.far_mem_ctrl0.wrQLenPdf::79                  0                       # What write queue length does an incoming req see (Count)
system.far_mem_ctrl0.wrQLenPdf::80                  0                       # What write queue length does an incoming req see (Count)
system.far_mem_ctrl0.wrQLenPdf::81                  0                       # What write queue length does an incoming req see (Count)
system.far_mem_ctrl0.wrQLenPdf::82                  0                       # What write queue length does an incoming req see (Count)
system.far_mem_ctrl0.wrQLenPdf::83                  0                       # What write queue length does an incoming req see (Count)
system.far_mem_ctrl0.wrQLenPdf::84                  0                       # What write queue length does an incoming req see (Count)
system.far_mem_ctrl0.wrQLenPdf::85                  0                       # What write queue length does an incoming req see (Count)
system.far_mem_ctrl0.wrQLenPdf::86                  0                       # What write queue length does an incoming req see (Count)
system.far_mem_ctrl0.wrQLenPdf::87                  0                       # What write queue length does an incoming req see (Count)
system.far_mem_ctrl0.wrQLenPdf::88                  0                       # What write queue length does an incoming req see (Count)
system.far_mem_ctrl0.wrQLenPdf::89                  0                       # What write queue length does an incoming req see (Count)
system.far_mem_ctrl0.wrQLenPdf::90                  0                       # What write queue length does an incoming req see (Count)
system.far_mem_ctrl0.wrQLenPdf::91                  0                       # What write queue length does an incoming req see (Count)
system.far_mem_ctrl0.wrQLenPdf::92                  0                       # What write queue length does an incoming req see (Count)
system.far_mem_ctrl0.wrQLenPdf::93                  0                       # What write queue length does an incoming req see (Count)
system.far_mem_ctrl0.wrQLenPdf::94                  0                       # What write queue length does an incoming req see (Count)
system.far_mem_ctrl0.wrQLenPdf::95                  0                       # What write queue length does an incoming req see (Count)
system.far_mem_ctrl0.wrQLenPdf::96                  0                       # What write queue length does an incoming req see (Count)
system.far_mem_ctrl0.wrQLenPdf::97                  0                       # What write queue length does an incoming req see (Count)
system.far_mem_ctrl0.wrQLenPdf::98                  0                       # What write queue length does an incoming req see (Count)
system.far_mem_ctrl0.wrQLenPdf::99                  0                       # What write queue length does an incoming req see (Count)
system.far_mem_ctrl0.wrQLenPdf::100                 0                       # What write queue length does an incoming req see (Count)
system.far_mem_ctrl0.wrQLenPdf::101                 0                       # What write queue length does an incoming req see (Count)
system.far_mem_ctrl0.wrQLenPdf::102                 0                       # What write queue length does an incoming req see (Count)
system.far_mem_ctrl0.wrQLenPdf::103                 0                       # What write queue length does an incoming req see (Count)
system.far_mem_ctrl0.wrQLenPdf::104                 0                       # What write queue length does an incoming req see (Count)
system.far_mem_ctrl0.wrQLenPdf::105                 0                       # What write queue length does an incoming req see (Count)
system.far_mem_ctrl0.wrQLenPdf::106                 0                       # What write queue length does an incoming req see (Count)
system.far_mem_ctrl0.wrQLenPdf::107                 0                       # What write queue length does an incoming req see (Count)
system.far_mem_ctrl0.wrQLenPdf::108                 0                       # What write queue length does an incoming req see (Count)
system.far_mem_ctrl0.wrQLenPdf::109                 0                       # What write queue length does an incoming req see (Count)
system.far_mem_ctrl0.wrQLenPdf::110                 0                       # What write queue length does an incoming req see (Count)
system.far_mem_ctrl0.wrQLenPdf::111                 0                       # What write queue length does an incoming req see (Count)
system.far_mem_ctrl0.wrQLenPdf::112                 0                       # What write queue length does an incoming req see (Count)
system.far_mem_ctrl0.wrQLenPdf::113                 0                       # What write queue length does an incoming req see (Count)
system.far_mem_ctrl0.wrQLenPdf::114                 0                       # What write queue length does an incoming req see (Count)
system.far_mem_ctrl0.wrQLenPdf::115                 0                       # What write queue length does an incoming req see (Count)
system.far_mem_ctrl0.wrQLenPdf::116                 0                       # What write queue length does an incoming req see (Count)
system.far_mem_ctrl0.wrQLenPdf::117                 0                       # What write queue length does an incoming req see (Count)
system.far_mem_ctrl0.wrQLenPdf::118                 0                       # What write queue length does an incoming req see (Count)
system.far_mem_ctrl0.wrQLenPdf::119                 0                       # What write queue length does an incoming req see (Count)
system.far_mem_ctrl0.wrQLenPdf::120                 0                       # What write queue length does an incoming req see (Count)
system.far_mem_ctrl0.wrQLenPdf::121                 0                       # What write queue length does an incoming req see (Count)
system.far_mem_ctrl0.wrQLenPdf::122                 0                       # What write queue length does an incoming req see (Count)
system.far_mem_ctrl0.wrQLenPdf::123                 0                       # What write queue length does an incoming req see (Count)
system.far_mem_ctrl0.wrQLenPdf::124                 0                       # What write queue length does an incoming req see (Count)
system.far_mem_ctrl0.wrQLenPdf::125                 0                       # What write queue length does an incoming req see (Count)
system.far_mem_ctrl0.wrQLenPdf::126                 0                       # What write queue length does an incoming req see (Count)
system.far_mem_ctrl0.wrQLenPdf::127                 0                       # What write queue length does an incoming req see (Count)
system.far_mem_ctrl0.bytesReadWrQ                   0                       # Total number of bytes read from write queue (Byte)
system.far_mem_ctrl0.bytesReadSys              365824                       # Total read bytes from the system interface side (Byte)
system.far_mem_ctrl0.bytesWrittenSys                0                       # Total written bytes from the system interface side (Byte)
system.far_mem_ctrl0.avgRdBWSys          3658240036.58240032                       # Average system read bandwidth in Byte/s ((Byte/Second))
system.far_mem_ctrl0.avgWrBWSys            0.00000000                       # Average system write bandwidth in Byte/s ((Byte/Second))
system.far_mem_ctrl0.totGap                  99783500                       # Total gap between requests (Tick)
system.far_mem_ctrl0.avgGap                  17456.88                       # Average gap between requests ((Tick/Count))
system.far_mem_ctrl0.requestorReadBytes::writebacks       365376                       # Per-requestor bytes read from memory (Byte)
system.far_mem_ctrl0.requestorReadRate::writebacks 3653760036.537600517273                       # Per-requestor bytes read from memory rate ((Byte/Second))
system.far_mem_ctrl0.requestorReadAccesses::writebacks         5716                       # Per-requestor read serviced memory accesses (Count)
system.far_mem_ctrl0.requestorReadTotalLat::writebacks   1461171364                       # Per-requestor read total memory access latency (Tick)
system.far_mem_ctrl0.requestorReadAvgLat::writebacks    255628.30                       # Per-requestor read average memory access latency ((Tick/Count))
system.far_mem_ctrl0.dram.bytesRead::writebacks       365376                       # Number of bytes read from this memory (Byte)
system.far_mem_ctrl0.dram.bytesRead::total       365376                       # Number of bytes read from this memory (Byte)
system.far_mem_ctrl0.dram.numReads::writebacks         5709                       # Number of read requests responded to by this memory (Count)
system.far_mem_ctrl0.dram.numReads::total         5709                       # Number of read requests responded to by this memory (Count)
system.far_mem_ctrl0.dram.bwRead::writebacks   3653760037                       # Total read bandwidth from this memory ((Byte/Second))
system.far_mem_ctrl0.dram.bwRead::total    3653760037                       # Total read bandwidth from this memory ((Byte/Second))
system.far_mem_ctrl0.dram.bwTotal::writebacks   3653760037                       # Total bandwidth to/from this memory ((Byte/Second))
system.far_mem_ctrl0.dram.bwTotal::total   3653760037                       # Total bandwidth to/from this memory ((Byte/Second))
system.far_mem_ctrl0.dram.readBursts             5709                       # Number of NVM read bursts (Count)
system.far_mem_ctrl0.dram.writeBursts               0                       # Number of NVM write bursts (Count)
system.far_mem_ctrl0.dram.perBankRdBursts::0          347                       # Per bank write bursts (Count)
system.far_mem_ctrl0.dram.perBankRdBursts::1          345                       # Per bank write bursts (Count)
system.far_mem_ctrl0.dram.perBankRdBursts::2          360                       # Per bank write bursts (Count)
system.far_mem_ctrl0.dram.perBankRdBursts::3          342                       # Per bank write bursts (Count)
system.far_mem_ctrl0.dram.perBankRdBursts::4          355                       # Per bank write bursts (Count)
system.far_mem_ctrl0.dram.perBankRdBursts::5          349                       # Per bank write bursts (Count)
system.far_mem_ctrl0.dram.perBankRdBursts::6          344                       # Per bank write bursts (Count)
system.far_mem_ctrl0.dram.perBankRdBursts::7          344                       # Per bank write bursts (Count)
system.far_mem_ctrl0.dram.perBankRdBursts::8          338                       # Per bank write bursts (Count)
system.far_mem_ctrl0.dram.perBankRdBursts::9          383                       # Per bank write bursts (Count)
system.far_mem_ctrl0.dram.perBankRdBursts::10          372                       # Per bank write bursts (Count)
system.far_mem_ctrl0.dram.perBankRdBursts::11          381                       # Per bank write bursts (Count)
system.far_mem_ctrl0.dram.perBankRdBursts::12          369                       # Per bank write bursts (Count)
system.far_mem_ctrl0.dram.perBankRdBursts::13          388                       # Per bank write bursts (Count)
system.far_mem_ctrl0.dram.perBankRdBursts::14          329                       # Per bank write bursts (Count)
system.far_mem_ctrl0.dram.perBankRdBursts::15          363                       # Per bank write bursts (Count)
system.far_mem_ctrl0.dram.perBankWrBursts::0            0                       # Per bank write bursts (Count)
system.far_mem_ctrl0.dram.perBankWrBursts::1            0                       # Per bank write bursts (Count)
system.far_mem_ctrl0.dram.perBankWrBursts::2            0                       # Per bank write bursts (Count)
system.far_mem_ctrl0.dram.perBankWrBursts::3            0                       # Per bank write bursts (Count)
system.far_mem_ctrl0.dram.perBankWrBursts::4            0                       # Per bank write bursts (Count)
system.far_mem_ctrl0.dram.perBankWrBursts::5            0                       # Per bank write bursts (Count)
system.far_mem_ctrl0.dram.perBankWrBursts::6            0                       # Per bank write bursts (Count)
system.far_mem_ctrl0.dram.perBankWrBursts::7            0                       # Per bank write bursts (Count)
system.far_mem_ctrl0.dram.perBankWrBursts::8            0                       # Per bank write bursts (Count)
system.far_mem_ctrl0.dram.perBankWrBursts::9            0                       # Per bank write bursts (Count)
system.far_mem_ctrl0.dram.perBankWrBursts::10            0                       # Per bank write bursts (Count)
system.far_mem_ctrl0.dram.perBankWrBursts::11            0                       # Per bank write bursts (Count)
system.far_mem_ctrl0.dram.perBankWrBursts::12            0                       # Per bank write bursts (Count)
system.far_mem_ctrl0.dram.perBankWrBursts::13            0                       # Per bank write bursts (Count)
system.far_mem_ctrl0.dram.perBankWrBursts::14            0                       # Per bank write bursts (Count)
system.far_mem_ctrl0.dram.perBankWrBursts::15            0                       # Per bank write bursts (Count)
system.far_mem_ctrl0.dram.totQLat          1361309536                       # Total ticks spent queuing (Tick)
system.far_mem_ctrl0.dram.totBusLat          19022388                       # Total ticks spent in databus transfers (Tick)
system.far_mem_ctrl0.dram.totMemAccLat     1461171364                       # Total ticks spent from burst creation until serviced by the NVM (Tick)
system.far_mem_ctrl0.dram.avgQLat           238449.73                       # Average queueing delay per NVM burst ((Tick/Count))
system.far_mem_ctrl0.dram.avgBusLat           3332.00                       # Average bus latency per NVM burst ((Tick/Count))
system.far_mem_ctrl0.dram.avgMemAccLat      255941.73                       # Average memory access latency per NVM burst ((Tick/Count))
system.far_mem_ctrl0.dram.avgRdBW             3653.76                       # Average DRAM read bandwidth in MiBytes/s ((Byte/Second))
system.far_mem_ctrl0.dram.avgWrBW                0.00                       # Average DRAM write bandwidth in MiBytes/s ((Byte/Second))
system.far_mem_ctrl0.dram.peakBW             19207.00                       # Theoretical peak bandwidth in MiByte/s ((Byte/Second))
system.far_mem_ctrl0.dram.busUtil               19.02                       # NVM Data bus utilization in percentage (Ratio)
system.far_mem_ctrl0.dram.busUtilRead           19.02                       # NVM Data bus read utilization in percentage (Ratio)
system.far_mem_ctrl0.dram.busUtilWrite           0.00                       # NVM Data bus write utilization in percentage (Ratio)
system.far_mem_ctrl0.dram.pendingReads::samples         5709                       # Reads issued to NVM for which data has not been transferred (Count)
system.far_mem_ctrl0.dram.pendingReads::mean    13.456647                       # Reads issued to NVM for which data has not been transferred (Count)
system.far_mem_ctrl0.dram.pendingReads::stdev     5.521832                       # Reads issued to NVM for which data has not been transferred (Count)
system.far_mem_ctrl0.dram.pendingReads::0            5      0.09%      0.09% # Reads issued to NVM for which data has not been transferred (Count)
system.far_mem_ctrl0.dram.pendingReads::1           10      0.18%      0.26% # Reads issued to NVM for which data has not been transferred (Count)
system.far_mem_ctrl0.dram.pendingReads::2           16      0.28%      0.54% # Reads issued to NVM for which data has not been transferred (Count)
system.far_mem_ctrl0.dram.pendingReads::3           29      0.51%      1.05% # Reads issued to NVM for which data has not been transferred (Count)
system.far_mem_ctrl0.dram.pendingReads::4           45      0.79%      1.84% # Reads issued to NVM for which data has not been transferred (Count)
system.far_mem_ctrl0.dram.pendingReads::5           80      1.40%      3.24% # Reads issued to NVM for which data has not been transferred (Count)
system.far_mem_ctrl0.dram.pendingReads::6          150      2.63%      5.87% # Reads issued to NVM for which data has not been transferred (Count)
system.far_mem_ctrl0.dram.pendingReads::7          230      4.03%      9.90% # Reads issued to NVM for which data has not been transferred (Count)
system.far_mem_ctrl0.dram.pendingReads::8          289      5.06%     14.96% # Reads issued to NVM for which data has not been transferred (Count)
system.far_mem_ctrl0.dram.pendingReads::9          349      6.11%     21.07% # Reads issued to NVM for which data has not been transferred (Count)
system.far_mem_ctrl0.dram.pendingReads::10          409      7.16%     28.24% # Reads issued to NVM for which data has not been transferred (Count)
system.far_mem_ctrl0.dram.pendingReads::11          435      7.62%     35.86% # Reads issued to NVM for which data has not been transferred (Count)
system.far_mem_ctrl0.dram.pendingReads::12          478      8.37%     44.23% # Reads issued to NVM for which data has not been transferred (Count)
system.far_mem_ctrl0.dram.pendingReads::13          505      8.85%     53.07% # Reads issued to NVM for which data has not been transferred (Count)
system.far_mem_ctrl0.dram.pendingReads::14          492      8.62%     61.69% # Reads issued to NVM for which data has not been transferred (Count)
system.far_mem_ctrl0.dram.pendingReads::15          497      8.71%     70.40% # Reads issued to NVM for which data has not been transferred (Count)
system.far_mem_ctrl0.dram.pendingReads::16          474      8.30%     78.70% # Reads issued to NVM for which data has not been transferred (Count)
system.far_mem_ctrl0.dram.pendingReads::17          385      6.74%     85.44% # Reads issued to NVM for which data has not been transferred (Count)
system.far_mem_ctrl0.dram.pendingReads::18          269      4.71%     90.16% # Reads issued to NVM for which data has not been transferred (Count)
system.far_mem_ctrl0.dram.pendingReads::19          179      3.14%     93.29% # Reads issued to NVM for which data has not been transferred (Count)
system.far_mem_ctrl0.dram.pendingReads::20          106      1.86%     95.15% # Reads issued to NVM for which data has not been transferred (Count)
system.far_mem_ctrl0.dram.pendingReads::21           53      0.93%     96.08% # Reads issued to NVM for which data has not been transferred (Count)
system.far_mem_ctrl0.dram.pendingReads::22           22      0.39%     96.46% # Reads issued to NVM for which data has not been transferred (Count)
system.far_mem_ctrl0.dram.pendingReads::23           18      0.32%     96.78% # Reads issued to NVM for which data has not been transferred (Count)
system.far_mem_ctrl0.dram.pendingReads::24           23      0.40%     97.18% # Reads issued to NVM for which data has not been transferred (Count)
system.far_mem_ctrl0.dram.pendingReads::25           17      0.30%     97.48% # Reads issued to NVM for which data has not been transferred (Count)
system.far_mem_ctrl0.dram.pendingReads::26           14      0.25%     97.72% # Reads issued to NVM for which data has not been transferred (Count)
system.far_mem_ctrl0.dram.pendingReads::27            9      0.16%     97.88% # Reads issued to NVM for which data has not been transferred (Count)
system.far_mem_ctrl0.dram.pendingReads::28            6      0.11%     97.99% # Reads issued to NVM for which data has not been transferred (Count)
system.far_mem_ctrl0.dram.pendingReads::29            4      0.07%     98.06% # Reads issued to NVM for which data has not been transferred (Count)
system.far_mem_ctrl0.dram.pendingReads::30            5      0.09%     98.14% # Reads issued to NVM for which data has not been transferred (Count)
system.far_mem_ctrl0.dram.pendingReads::31            6      0.11%     98.25% # Reads issued to NVM for which data has not been transferred (Count)
system.far_mem_ctrl0.dram.pendingReads::32            8      0.14%     98.39% # Reads issued to NVM for which data has not been transferred (Count)
system.far_mem_ctrl0.dram.pendingReads::33            7      0.12%     98.51% # Reads issued to NVM for which data has not been transferred (Count)
system.far_mem_ctrl0.dram.pendingReads::34            7      0.12%     98.63% # Reads issued to NVM for which data has not been transferred (Count)
system.far_mem_ctrl0.dram.pendingReads::35           10      0.18%     98.81% # Reads issued to NVM for which data has not been transferred (Count)
system.far_mem_ctrl0.dram.pendingReads::36            6      0.11%     98.91% # Reads issued to NVM for which data has not been transferred (Count)
system.far_mem_ctrl0.dram.pendingReads::37            5      0.09%     99.00% # Reads issued to NVM for which data has not been transferred (Count)
system.far_mem_ctrl0.dram.pendingReads::38            7      0.12%     99.12% # Reads issued to NVM for which data has not been transferred (Count)
system.far_mem_ctrl0.dram.pendingReads::39            6      0.11%     99.23% # Reads issued to NVM for which data has not been transferred (Count)
system.far_mem_ctrl0.dram.pendingReads::40            6      0.11%     99.33% # Reads issued to NVM for which data has not been transferred (Count)
system.far_mem_ctrl0.dram.pendingReads::41            4      0.07%     99.40% # Reads issued to NVM for which data has not been transferred (Count)
system.far_mem_ctrl0.dram.pendingReads::42            4      0.07%     99.47% # Reads issued to NVM for which data has not been transferred (Count)
system.far_mem_ctrl0.dram.pendingReads::43            2      0.04%     99.51% # Reads issued to NVM for which data has not been transferred (Count)
system.far_mem_ctrl0.dram.pendingReads::44            8      0.14%     99.65% # Reads issued to NVM for which data has not been transferred (Count)
system.far_mem_ctrl0.dram.pendingReads::45            5      0.09%     99.74% # Reads issued to NVM for which data has not been transferred (Count)
system.far_mem_ctrl0.dram.pendingReads::46            5      0.09%     99.82% # Reads issued to NVM for which data has not been transferred (Count)
system.far_mem_ctrl0.dram.pendingReads::47            2      0.04%     99.86% # Reads issued to NVM for which data has not been transferred (Count)
system.far_mem_ctrl0.dram.pendingReads::48            3      0.05%     99.91% # Reads issued to NVM for which data has not been transferred (Count)
system.far_mem_ctrl0.dram.pendingReads::49            3      0.05%     99.96% # Reads issued to NVM for which data has not been transferred (Count)
system.far_mem_ctrl0.dram.pendingReads::50            2      0.04%    100.00% # Reads issued to NVM for which data has not been transferred (Count)
system.far_mem_ctrl0.dram.pendingReads::total         5709                       # Reads issued to NVM for which data has not been transferred (Count)
system.far_mem_ctrl0.dram.bytesPerBank::samples         5716                       # Bytes read within a bank before loading new bank (Byte)
system.far_mem_ctrl0.dram.bytesPerBank::mean           64                       # Bytes read within a bank before loading new bank (Byte)
system.far_mem_ctrl0.dram.bytesPerBank::gmean    64.000000                       # Bytes read within a bank before loading new bank (Byte)
system.far_mem_ctrl0.dram.bytesPerBank::64         5716    100.00%    100.00% # Bytes read within a bank before loading new bank (Byte)
system.far_mem_ctrl0.dram.bytesPerBank::total         5716                       # Bytes read within a bank before loading new bank (Byte)
system.far_mem_ctrl0.dram.power_state.pwrStateResidencyTicks::UNDEFINED     99999999                       # Cumulative time (in ticks) in various power states (Tick)
system.far_mem_ctrl0.power_state.pwrStateResidencyTicks::UNDEFINED     99999999                       # Cumulative time (in ticks) in various power states (Tick)
system.far_mem_ctrl1.avgPriority_writebacks::samples      5740.00                       # Average QoS priority value for accepted requests (Count)
system.far_mem_ctrl1.priorityMinLatency  0.000000317492                       # per QoS priority minimum request to response latency (Second)
system.far_mem_ctrl1.priorityMaxLatency  0.000002045492                       # per QoS priority maximum request to response latency (Second)
system.far_mem_ctrl1.numReadWriteTurnArounds            0                       # Number of turnarounds from READ to WRITE (Count)
system.far_mem_ctrl1.numWriteReadTurnArounds            0                       # Number of turnarounds from WRITE to READ (Count)
system.far_mem_ctrl1.numStayReadState           17154                       # Number of times bus staying in READ state (Count)
system.far_mem_ctrl1.numStayWriteState              0                       # Number of times bus staying in WRITE state (Count)
system.far_mem_ctrl1.readReqs                    5740                       # Number of read requests accepted (Count)
system.far_mem_ctrl1.writeReqs                      0                       # Number of write requests accepted (Count)
system.far_mem_ctrl1.readBursts                  5740                       # Number of controller read bursts, including those serviced by the write queue (Count)
system.far_mem_ctrl1.writeBursts                    0                       # Number of controller write bursts, including those merged in the write queue (Count)
system.far_mem_ctrl1.servicedByWrQ                  0                       # Number of controller read bursts serviced by the write queue (Count)
system.far_mem_ctrl1.mergedWrBursts                 0                       # Number of controller write bursts merged with an existing one (Count)
system.far_mem_ctrl1.neitherReadNorWriteReqs            0                       # Number of requests that are neither read nor write (Count)
system.far_mem_ctrl1.avgRdQLen                  17.56                       # Average read queue length when enqueuing ((Count/Tick))
system.far_mem_ctrl1.avgWrQLen                   0.00                       # Average write queue length when enqueuing ((Count/Tick))
system.far_mem_ctrl1.numRdRetry                     0                       # Number of times read queue was full causing retry (Count)
system.far_mem_ctrl1.numWrRetry                     0                       # Number of times write queue was full causing retry (Count)
system.far_mem_ctrl1.readPktSize::0                 0                       # Read request sizes (log2) (Count)
system.far_mem_ctrl1.readPktSize::1                 0                       # Read request sizes (log2) (Count)
system.far_mem_ctrl1.readPktSize::2                 0                       # Read request sizes (log2) (Count)
system.far_mem_ctrl1.readPktSize::3                 0                       # Read request sizes (log2) (Count)
system.far_mem_ctrl1.readPktSize::4                 0                       # Read request sizes (log2) (Count)
system.far_mem_ctrl1.readPktSize::5                 0                       # Read request sizes (log2) (Count)
system.far_mem_ctrl1.readPktSize::6              5740                       # Read request sizes (log2) (Count)
system.far_mem_ctrl1.writePktSize::0                0                       # Write request sizes (log2) (Count)
system.far_mem_ctrl1.writePktSize::1                0                       # Write request sizes (log2) (Count)
system.far_mem_ctrl1.writePktSize::2                0                       # Write request sizes (log2) (Count)
system.far_mem_ctrl1.writePktSize::3                0                       # Write request sizes (log2) (Count)
system.far_mem_ctrl1.writePktSize::4                0                       # Write request sizes (log2) (Count)
system.far_mem_ctrl1.writePktSize::5                0                       # Write request sizes (log2) (Count)
system.far_mem_ctrl1.writePktSize::6                0                       # Write request sizes (log2) (Count)
system.far_mem_ctrl1.rdQLenPdf::0                   2                       # What read queue length does an incoming req see (Count)
system.far_mem_ctrl1.rdQLenPdf::1                   8                       # What read queue length does an incoming req see (Count)
system.far_mem_ctrl1.rdQLenPdf::2                  22                       # What read queue length does an incoming req see (Count)
system.far_mem_ctrl1.rdQLenPdf::3                  30                       # What read queue length does an incoming req see (Count)
system.far_mem_ctrl1.rdQLenPdf::4                  41                       # What read queue length does an incoming req see (Count)
system.far_mem_ctrl1.rdQLenPdf::5                  64                       # What read queue length does an incoming req see (Count)
system.far_mem_ctrl1.rdQLenPdf::6                 103                       # What read queue length does an incoming req see (Count)
system.far_mem_ctrl1.rdQLenPdf::7                 184                       # What read queue length does an incoming req see (Count)
system.far_mem_ctrl1.rdQLenPdf::8                 256                       # What read queue length does an incoming req see (Count)
system.far_mem_ctrl1.rdQLenPdf::9                 315                       # What read queue length does an incoming req see (Count)
system.far_mem_ctrl1.rdQLenPdf::10                379                       # What read queue length does an incoming req see (Count)
system.far_mem_ctrl1.rdQLenPdf::11                444                       # What read queue length does an incoming req see (Count)
system.far_mem_ctrl1.rdQLenPdf::12                455                       # What read queue length does an incoming req see (Count)
system.far_mem_ctrl1.rdQLenPdf::13                476                       # What read queue length does an incoming req see (Count)
system.far_mem_ctrl1.rdQLenPdf::14                518                       # What read queue length does an incoming req see (Count)
system.far_mem_ctrl1.rdQLenPdf::15                504                       # What read queue length does an incoming req see (Count)
system.far_mem_ctrl1.rdQLenPdf::16                505                       # What read queue length does an incoming req see (Count)
system.far_mem_ctrl1.rdQLenPdf::17                437                       # What read queue length does an incoming req see (Count)
system.far_mem_ctrl1.rdQLenPdf::18                327                       # What read queue length does an incoming req see (Count)
system.far_mem_ctrl1.rdQLenPdf::19                226                       # What read queue length does an incoming req see (Count)
system.far_mem_ctrl1.rdQLenPdf::20                146                       # What read queue length does an incoming req see (Count)
system.far_mem_ctrl1.rdQLenPdf::21                 95                       # What read queue length does an incoming req see (Count)
system.far_mem_ctrl1.rdQLenPdf::22                 49                       # What read queue length does an incoming req see (Count)
system.far_mem_ctrl1.rdQLenPdf::23                 18                       # What read queue length does an incoming req see (Count)
system.far_mem_ctrl1.rdQLenPdf::24                 10                       # What read queue length does an incoming req see (Count)
system.far_mem_ctrl1.rdQLenPdf::25                  6                       # What read queue length does an incoming req see (Count)
system.far_mem_ctrl1.rdQLenPdf::26                 11                       # What read queue length does an incoming req see (Count)
system.far_mem_ctrl1.rdQLenPdf::27                  5                       # What read queue length does an incoming req see (Count)
system.far_mem_ctrl1.rdQLenPdf::28                  6                       # What read queue length does an incoming req see (Count)
system.far_mem_ctrl1.rdQLenPdf::29                 10                       # What read queue length does an incoming req see (Count)
system.far_mem_ctrl1.rdQLenPdf::30                  5                       # What read queue length does an incoming req see (Count)
system.far_mem_ctrl1.rdQLenPdf::31                  3                       # What read queue length does an incoming req see (Count)
system.far_mem_ctrl1.rdQLenPdf::32                  1                       # What read queue length does an incoming req see (Count)
system.far_mem_ctrl1.rdQLenPdf::33                  3                       # What read queue length does an incoming req see (Count)
system.far_mem_ctrl1.rdQLenPdf::34                  5                       # What read queue length does an incoming req see (Count)
system.far_mem_ctrl1.rdQLenPdf::35                  8                       # What read queue length does an incoming req see (Count)
system.far_mem_ctrl1.rdQLenPdf::36                  9                       # What read queue length does an incoming req see (Count)
system.far_mem_ctrl1.rdQLenPdf::37                  6                       # What read queue length does an incoming req see (Count)
system.far_mem_ctrl1.rdQLenPdf::38                  3                       # What read queue length does an incoming req see (Count)
system.far_mem_ctrl1.rdQLenPdf::39                  3                       # What read queue length does an incoming req see (Count)
system.far_mem_ctrl1.rdQLenPdf::40                  2                       # What read queue length does an incoming req see (Count)
system.far_mem_ctrl1.rdQLenPdf::41                  4                       # What read queue length does an incoming req see (Count)
system.far_mem_ctrl1.rdQLenPdf::42                  9                       # What read queue length does an incoming req see (Count)
system.far_mem_ctrl1.rdQLenPdf::43                  4                       # What read queue length does an incoming req see (Count)
system.far_mem_ctrl1.rdQLenPdf::44                  2                       # What read queue length does an incoming req see (Count)
system.far_mem_ctrl1.rdQLenPdf::45                  5                       # What read queue length does an incoming req see (Count)
system.far_mem_ctrl1.rdQLenPdf::46                  9                       # What read queue length does an incoming req see (Count)
system.far_mem_ctrl1.rdQLenPdf::47                  4                       # What read queue length does an incoming req see (Count)
system.far_mem_ctrl1.rdQLenPdf::48                  2                       # What read queue length does an incoming req see (Count)
system.far_mem_ctrl1.rdQLenPdf::49                  1                       # What read queue length does an incoming req see (Count)
system.far_mem_ctrl1.rdQLenPdf::50                  0                       # What read queue length does an incoming req see (Count)
system.far_mem_ctrl1.rdQLenPdf::51                  0                       # What read queue length does an incoming req see (Count)
system.far_mem_ctrl1.rdQLenPdf::52                  0                       # What read queue length does an incoming req see (Count)
system.far_mem_ctrl1.rdQLenPdf::53                  0                       # What read queue length does an incoming req see (Count)
system.far_mem_ctrl1.rdQLenPdf::54                  0                       # What read queue length does an incoming req see (Count)
system.far_mem_ctrl1.rdQLenPdf::55                  0                       # What read queue length does an incoming req see (Count)
system.far_mem_ctrl1.rdQLenPdf::56                  0                       # What read queue length does an incoming req see (Count)
system.far_mem_ctrl1.rdQLenPdf::57                  0                       # What read queue length does an incoming req see (Count)
system.far_mem_ctrl1.rdQLenPdf::58                  0                       # What read queue length does an incoming req see (Count)
system.far_mem_ctrl1.rdQLenPdf::59                  0                       # What read queue length does an incoming req see (Count)
system.far_mem_ctrl1.rdQLenPdf::60                  0                       # What read queue length does an incoming req see (Count)
system.far_mem_ctrl1.rdQLenPdf::61                  0                       # What read queue length does an incoming req see (Count)
system.far_mem_ctrl1.rdQLenPdf::62                  0                       # What read queue length does an incoming req see (Count)
system.far_mem_ctrl1.rdQLenPdf::63                  0                       # What read queue length does an incoming req see (Count)
system.far_mem_ctrl1.rdQLenPdf::64                  0                       # What read queue length does an incoming req see (Count)
system.far_mem_ctrl1.rdQLenPdf::65                  0                       # What read queue length does an incoming req see (Count)
system.far_mem_ctrl1.rdQLenPdf::66                  0                       # What read queue length does an incoming req see (Count)
system.far_mem_ctrl1.rdQLenPdf::67                  0                       # What read queue length does an incoming req see (Count)
system.far_mem_ctrl1.rdQLenPdf::68                  0                       # What read queue length does an incoming req see (Count)
system.far_mem_ctrl1.rdQLenPdf::69                  0                       # What read queue length does an incoming req see (Count)
system.far_mem_ctrl1.rdQLenPdf::70                  0                       # What read queue length does an incoming req see (Count)
system.far_mem_ctrl1.rdQLenPdf::71                  0                       # What read queue length does an incoming req see (Count)
system.far_mem_ctrl1.rdQLenPdf::72                  0                       # What read queue length does an incoming req see (Count)
system.far_mem_ctrl1.rdQLenPdf::73                  0                       # What read queue length does an incoming req see (Count)
system.far_mem_ctrl1.rdQLenPdf::74                  0                       # What read queue length does an incoming req see (Count)
system.far_mem_ctrl1.rdQLenPdf::75                  0                       # What read queue length does an incoming req see (Count)
system.far_mem_ctrl1.rdQLenPdf::76                  0                       # What read queue length does an incoming req see (Count)
system.far_mem_ctrl1.rdQLenPdf::77                  0                       # What read queue length does an incoming req see (Count)
system.far_mem_ctrl1.rdQLenPdf::78                  0                       # What read queue length does an incoming req see (Count)
system.far_mem_ctrl1.rdQLenPdf::79                  0                       # What read queue length does an incoming req see (Count)
system.far_mem_ctrl1.rdQLenPdf::80                  0                       # What read queue length does an incoming req see (Count)
system.far_mem_ctrl1.rdQLenPdf::81                  0                       # What read queue length does an incoming req see (Count)
system.far_mem_ctrl1.rdQLenPdf::82                  0                       # What read queue length does an incoming req see (Count)
system.far_mem_ctrl1.rdQLenPdf::83                  0                       # What read queue length does an incoming req see (Count)
system.far_mem_ctrl1.rdQLenPdf::84                  0                       # What read queue length does an incoming req see (Count)
system.far_mem_ctrl1.rdQLenPdf::85                  0                       # What read queue length does an incoming req see (Count)
system.far_mem_ctrl1.rdQLenPdf::86                  0                       # What read queue length does an incoming req see (Count)
system.far_mem_ctrl1.rdQLenPdf::87                  0                       # What read queue length does an incoming req see (Count)
system.far_mem_ctrl1.rdQLenPdf::88                  0                       # What read queue length does an incoming req see (Count)
system.far_mem_ctrl1.rdQLenPdf::89                  0                       # What read queue length does an incoming req see (Count)
system.far_mem_ctrl1.rdQLenPdf::90                  0                       # What read queue length does an incoming req see (Count)
system.far_mem_ctrl1.rdQLenPdf::91                  0                       # What read queue length does an incoming req see (Count)
system.far_mem_ctrl1.rdQLenPdf::92                  0                       # What read queue length does an incoming req see (Count)
system.far_mem_ctrl1.rdQLenPdf::93                  0                       # What read queue length does an incoming req see (Count)
system.far_mem_ctrl1.rdQLenPdf::94                  0                       # What read queue length does an incoming req see (Count)
system.far_mem_ctrl1.rdQLenPdf::95                  0                       # What read queue length does an incoming req see (Count)
system.far_mem_ctrl1.rdQLenPdf::96                  0                       # What read queue length does an incoming req see (Count)
system.far_mem_ctrl1.rdQLenPdf::97                  0                       # What read queue length does an incoming req see (Count)
system.far_mem_ctrl1.rdQLenPdf::98                  0                       # What read queue length does an incoming req see (Count)
system.far_mem_ctrl1.rdQLenPdf::99                  0                       # What read queue length does an incoming req see (Count)
system.far_mem_ctrl1.rdQLenPdf::100                 0                       # What read queue length does an incoming req see (Count)
system.far_mem_ctrl1.rdQLenPdf::101                 0                       # What read queue length does an incoming req see (Count)
system.far_mem_ctrl1.rdQLenPdf::102                 0                       # What read queue length does an incoming req see (Count)
system.far_mem_ctrl1.rdQLenPdf::103                 0                       # What read queue length does an incoming req see (Count)
system.far_mem_ctrl1.rdQLenPdf::104                 0                       # What read queue length does an incoming req see (Count)
system.far_mem_ctrl1.rdQLenPdf::105                 0                       # What read queue length does an incoming req see (Count)
system.far_mem_ctrl1.rdQLenPdf::106                 0                       # What read queue length does an incoming req see (Count)
system.far_mem_ctrl1.rdQLenPdf::107                 0                       # What read queue length does an incoming req see (Count)
system.far_mem_ctrl1.rdQLenPdf::108                 0                       # What read queue length does an incoming req see (Count)
system.far_mem_ctrl1.rdQLenPdf::109                 0                       # What read queue length does an incoming req see (Count)
system.far_mem_ctrl1.rdQLenPdf::110                 0                       # What read queue length does an incoming req see (Count)
system.far_mem_ctrl1.rdQLenPdf::111                 0                       # What read queue length does an incoming req see (Count)
system.far_mem_ctrl1.rdQLenPdf::112                 0                       # What read queue length does an incoming req see (Count)
system.far_mem_ctrl1.rdQLenPdf::113                 0                       # What read queue length does an incoming req see (Count)
system.far_mem_ctrl1.rdQLenPdf::114                 0                       # What read queue length does an incoming req see (Count)
system.far_mem_ctrl1.rdQLenPdf::115                 0                       # What read queue length does an incoming req see (Count)
system.far_mem_ctrl1.rdQLenPdf::116                 0                       # What read queue length does an incoming req see (Count)
system.far_mem_ctrl1.rdQLenPdf::117                 0                       # What read queue length does an incoming req see (Count)
system.far_mem_ctrl1.rdQLenPdf::118                 0                       # What read queue length does an incoming req see (Count)
system.far_mem_ctrl1.rdQLenPdf::119                 0                       # What read queue length does an incoming req see (Count)
system.far_mem_ctrl1.rdQLenPdf::120                 0                       # What read queue length does an incoming req see (Count)
system.far_mem_ctrl1.rdQLenPdf::121                 0                       # What read queue length does an incoming req see (Count)
system.far_mem_ctrl1.rdQLenPdf::122                 0                       # What read queue length does an incoming req see (Count)
system.far_mem_ctrl1.rdQLenPdf::123                 0                       # What read queue length does an incoming req see (Count)
system.far_mem_ctrl1.rdQLenPdf::124                 0                       # What read queue length does an incoming req see (Count)
system.far_mem_ctrl1.rdQLenPdf::125                 0                       # What read queue length does an incoming req see (Count)
system.far_mem_ctrl1.rdQLenPdf::126                 0                       # What read queue length does an incoming req see (Count)
system.far_mem_ctrl1.rdQLenPdf::127                 0                       # What read queue length does an incoming req see (Count)
system.far_mem_ctrl1.wrQLenPdf::0                   0                       # What write queue length does an incoming req see (Count)
system.far_mem_ctrl1.wrQLenPdf::1                   0                       # What write queue length does an incoming req see (Count)
system.far_mem_ctrl1.wrQLenPdf::2                   0                       # What write queue length does an incoming req see (Count)
system.far_mem_ctrl1.wrQLenPdf::3                   0                       # What write queue length does an incoming req see (Count)
system.far_mem_ctrl1.wrQLenPdf::4                   0                       # What write queue length does an incoming req see (Count)
system.far_mem_ctrl1.wrQLenPdf::5                   0                       # What write queue length does an incoming req see (Count)
system.far_mem_ctrl1.wrQLenPdf::6                   0                       # What write queue length does an incoming req see (Count)
system.far_mem_ctrl1.wrQLenPdf::7                   0                       # What write queue length does an incoming req see (Count)
system.far_mem_ctrl1.wrQLenPdf::8                   0                       # What write queue length does an incoming req see (Count)
system.far_mem_ctrl1.wrQLenPdf::9                   0                       # What write queue length does an incoming req see (Count)
system.far_mem_ctrl1.wrQLenPdf::10                  0                       # What write queue length does an incoming req see (Count)
system.far_mem_ctrl1.wrQLenPdf::11                  0                       # What write queue length does an incoming req see (Count)
system.far_mem_ctrl1.wrQLenPdf::12                  0                       # What write queue length does an incoming req see (Count)
[...]
system.mem_ctrl0.writePktSize::5                    0                       # Write request sizes (log2) (Count)
system.mem_ctrl0.writePktSize::6                    0                       # Write request sizes (log2) (Count)
system.mem_ctrl0.bytesReadWrQ                       0                       # Total number of bytes read from write queue (Byte)
system.mem_ctrl0.bytesReadSys                  377792                       # Total read bytes from the system interface side (Byte)
system.mem_ctrl0.bytesWrittenSys                    0                       # Total written bytes from the system interface side (Byte)
system.mem_ctrl0.avgRdBWSys              3777920037.77920055                       # Average system read bandwidth in Byte/s ((Byte/Second))
system.mem_ctrl0.avgWrBWSys                0.00000000                       # Average system write bandwidth in Byte/s ((Byte/Second))
system.mem_ctrl0.totGap                  18446603499445532672                       # Total gap between requests (Tick)
system.mem_ctrl0.avgGap                  3124954006343475.00                       # Average gap between requests ((Tick/Count))
system.mem_ctrl0.avgORBLen                   246.0884                       # Average ORB length ((Count/Tick))
system.mem_ctrl0.avgLocRdQLenStrt              173.31                       # Average local read queue length ((Count/Tick))
system.mem_ctrl0.avgLocWrQLenStrt               21.33                       # Average local write queue length ((Count/Tick))
system.mem_ctrl0.avgFarRdQLenStrt                0.00                       # Average far read queue length ((Count/Tick))
system.mem_ctrl0.avgFarWrQLenStrt                0.00                       # Average far write queue length ((Count/Tick))
system.mem_ctrl0.avgLocRdQLenEnq               174.31                       # Average local read queue length when enqueuing ((Count/Tick))
system.mem_ctrl0.avgLocWrQLenEnq                24.94                       # Average local write queue length when enqueuing ((Count/Tick))
system.mem_ctrl0.avgFarRdQLenEnq                 1.00                       # Average far read queue length when enqueuing ((Count/Tick))
system.mem_ctrl0.avgFarWrQLenEnq                 0.00                       # Average far write queue length when enqueuing ((Count/Tick))
system.mem_ctrl0.numWrBacks                         0                       # Total number of write backs from DRAM cache to main memory (Unspecified)
system.mem_ctrl0.totNumConf                        88                       # Total number of packets conflicted on DRAM cache (Unspecified)
system.mem_ctrl0.totNumORBFull                   3149                       # Total number of packets ORB full (Unspecified)
system.mem_ctrl0.totNumCRBFull                      0                       # Total number of packets conflicted yet couldn't enter confBuffer (Unspecified)
system.mem_ctrl0.maxNumConf                         5                       # Maximum number of packets conflicted on DRAM cache (Unspecified)
system.mem_ctrl0.sentLocRdPort                   5748                       # stat (Unspecified)
system.mem_ctrl0.sentLocWrPort                   5680                       # stat (Unspecified)
system.mem_ctrl0.failedLocRdPort                11176                       # stat (Unspecified)
system.mem_ctrl0.failedLocWrPort                11056                       # stat (Unspecified)
system.mem_ctrl0.recvdRdPort                        0                       # stat (Unspecified)
system.mem_ctrl0.sentFarRdPort                   5716                       # stat (Unspecified)
system.mem_ctrl0.sentFarWrPort                      0                       # stat (Unspecified)
system.mem_ctrl0.failedFarRdPort                    0                       # stat (Unspecified)
system.mem_ctrl0.failedFarWrPort                    0                       # stat (Unspecified)
system.mem_ctrl0.totPktsServiceTime          24167327                       # stat (Unspecified)
system.mem_ctrl0.totPktsORBTime              23971175                       # stat (Unspecified)
system.mem_ctrl0.totTimeFarRdtoSend                 0                       # stat (Unspecified)
system.mem_ctrl0.totTimeFarRdtoRecv           1564797                       # stat (Unspecified)
system.mem_ctrl0.totTimeFarWrtoSend                 0                       # stat (Unspecified)
system.mem_ctrl0.totTimeInLocRead            19999430                       # stat (Unspecified)
system.mem_ctrl0.totTimeInLocWrite            2401767                       # stat (Unspecified)
system.mem_ctrl0.totTimeInFarRead             1564797                       # stat (Unspecified)
system.mem_ctrl0.numTotHits                         0                       # stat (Unspecified)
system.mem_ctrl0.numTotMisses                    5903                       # stat (Unspecified)
system.mem_ctrl0.numColdMisses                   4941                       # stat (Unspecified)
system.mem_ctrl0.numHotMisses                     962                       # stat (Unspecified)
system.mem_ctrl0.numRdMissClean                  5903                       # stat (Unspecified)
system.mem_ctrl0.numRdMissDirty                     0                       # stat (Unspecified)
system.mem_ctrl0.numRdHit                           0                       # stat (Unspecified)
system.mem_ctrl0.numWrMissClean                     0                       # stat (Unspecified)
system.mem_ctrl0.numWrMissDirty                     0                       # stat (Unspecified)
system.mem_ctrl0.numWrHit                           0                       # stat (Unspecified)
system.mem_ctrl0.numRdHitDirty                      0                       # stat (Unspecified)
system.mem_ctrl0.numRdHitClean                      0                       # stat (Unspecified)
system.mem_ctrl0.numWrHitDirty                      0                       # stat (Unspecified)
system.mem_ctrl0.numWrHitClean                      0                       # stat (Unspecified)
system.mem_ctrl0.power_state.pwrStateResidencyTicks::UNDEFINED     99999999                       # Cumulative time (in ticks) in various power states (Tick)
system.mem_ctrl1.bytesRead::generators0        187008                       # Number of bytes read from this memory (Byte)
system.mem_ctrl1.bytesRead::generators1        179392                       # Number of bytes read from this memory (Byte)
system.mem_ctrl1.bytesRead::total              366400                       # Number of bytes read from this memory (Byte)
system.mem_ctrl1.numReads::generators0           2922                       # Number of read requests responded to by this memory (Count)
system.mem_ctrl1.numReads::generators1           2803                       # Number of read requests responded to by this memory (Count)
system.mem_ctrl1.numReads::total                 5725                       # Number of read requests responded to by this memory (Count)
system.mem_ctrl1.bwRead::generators0       1870080019                       # Total read bandwidth from this memory ((Byte/Second))
system.mem_ctrl1.bwRead::generators1       1793920018                       # Total read bandwidth from this memory ((Byte/Second))
system.mem_ctrl1.bwRead::total             3664000037                       # Total read bandwidth from this memory ((Byte/Second))
system.mem_ctrl1.bwTotal::generators0      1870080019                       # Total bandwidth to/from this memory ((Byte/Second))
system.mem_ctrl1.bwTotal::generators1      1793920018                       # Total bandwidth to/from this memory ((Byte/Second))
system.mem_ctrl1.bwTotal::total            3664000037                       # Total bandwidth to/from this memory ((Byte/Second))
system.mem_ctrl1.readReqs                        5953                       # Number of read requests accepted (Count)
system.mem_ctrl1.writeReqs                          0                       # Number of write requests accepted (Count)
system.mem_ctrl1.servicedByWrQ                      0                       # Number of controller read bursts serviced by the write queue (Count)
system.mem_ctrl1.mergedWrBursts                     0                       # Number of controller write bursts merged with an existing one (Count)
system.mem_ctrl1.numRdRetry                      2501                       # Number of times read queue was full causing retry (Count)
system.mem_ctrl1.numWrRetry                         0                       # Number of times write queue was full causing retry (Count)
system.mem_ctrl1.readPktSize::0                     0                       # Read request sizes (log2) (Count)
system.mem_ctrl1.readPktSize::1                     0                       # Read request sizes (log2) (Count)
system.mem_ctrl1.readPktSize::2                     0                       # Read request sizes (log2) (Count)
system.mem_ctrl1.readPktSize::3                     0                       # Read request sizes (log2) (Count)
system.mem_ctrl1.readPktSize::4                     0                       # Read request sizes (log2) (Count)
system.mem_ctrl1.readPktSize::5                     0                       # Read request sizes (log2) (Count)
system.mem_ctrl1.readPktSize::6                  5953                       # Read request sizes (log2) (Count)
system.mem_ctrl1.writePktSize::0                    0                       # Write request sizes (log2) (Count)
system.mem_ctrl1.writePktSize::1                    0                       # Write request sizes (log2) (Count)
system.mem_ctrl1.writePktSize::2                    0                       # Write request sizes (log2) (Count)
system.mem_ctrl1.writePktSize::3                    0                       # Write request sizes (log2) (Count)
system.mem_ctrl1.writePktSize::4                    0                       # Write request sizes (log2) (Count)
system.mem_ctrl1.writePktSize::5                    0                       # Write request sizes (log2) (Count)
system.mem_ctrl1.writePktSize::6                    0                       # Write request sizes (log2) (Count)
system.mem_ctrl1.bytesReadWrQ                       0                       # Total number of bytes read from write queue (Byte)
system.mem_ctrl1.bytesReadSys                  380992                       # Total read bytes from the system interface side (Byte)
system.mem_ctrl1.bytesWrittenSys                    0                       # Total written bytes from the system interface side (Byte)
system.mem_ctrl1.avgRdBWSys              3809920038.09920073                       # Average system read bandwidth in Byte/s ((Byte/Second))
system.mem_ctrl1.avgWrBWSys                0.00000000                       # Average system write bandwidth in Byte/s ((Byte/Second))
system.mem_ctrl1.totGap                  18446603499430447104                       # Total gap between requests (Tick)
system.mem_ctrl1.avgGap                  3098707122363589.50                       # Average gap between requests ((Tick/Count))
system.mem_ctrl1.avgORBLen                   242.2287                       # Average ORB length ((Count/Tick))
system.mem_ctrl1.avgLocRdQLenStrt              170.26                       # Average local read queue length ((Count/Tick))
system.mem_ctrl1.avgLocWrQLenStrt               20.90                       # Average local write queue length ((Count/Tick))
system.mem_ctrl1.avgFarRdQLenStrt                0.00                       # Average far read queue length ((Count/Tick))
system.mem_ctrl1.avgFarWrQLenStrt                0.00                       # Average far write queue length ((Count/Tick))
system.mem_ctrl1.avgLocRdQLenEnq               171.26                       # Average local read queue length when enqueuing ((Count/Tick))
system.mem_ctrl1.avgLocWrQLenEnq                24.15                       # Average local write queue length when enqueuing ((Count/Tick))
system.mem_ctrl1.avgFarRdQLenEnq                 1.00                       # Average far read queue length when enqueuing ((Count/Tick))
system.mem_ctrl1.avgFarWrQLenEnq                 0.00                       # Average far write queue length when enqueuing ((Count/Tick))
system.mem_ctrl1.numWrBacks                         0                       # Total number of write backs from DRAM cache to main memory (Unspecified)
system.mem_ctrl1.totNumConf                        92                       # Total number of packets conflicted on DRAM cache (Unspecified)
system.mem_ctrl1.totNumORBFull                   2501                       # Total number of packets ORB full (Unspecified)
system.mem_ctrl1.totNumCRBFull                      0                       # Total number of packets conflicted yet couldn't enter confBuffer (Unspecified)
system.mem_ctrl1.maxNumConf                         6                       # Maximum number of packets conflicted on DRAM cache (Unspecified)
system.mem_ctrl1.sentLocRdPort                   5774                       # stat (Unspecified)
system.mem_ctrl1.sentLocWrPort                   5698                       # stat (Unspecified)
system.mem_ctrl1.failedLocRdPort                11269                       # stat (Unspecified)
system.mem_ctrl1.failedLocWrPort                11148                       # stat (Unspecified)
system.mem_ctrl1.recvdRdPort                        0                       # stat (Unspecified)
system.mem_ctrl1.sentFarRdPort                   5740                       # stat (Unspecified)
system.mem_ctrl1.sentFarWrPort                      0                       # stat (Unspecified)
system.mem_ctrl1.failedFarRdPort                    0                       # stat (Unspecified)
system.mem_ctrl1.failedFarWrPort                    0                       # stat (Unspecified)
system.mem_ctrl1.totPktsServiceTime          23656516                       # stat (Unspecified)
system.mem_ctrl1.totPktsORBTime              23468856                       # stat (Unspecified)
system.mem_ctrl1.totTimeFarRdtoSend                 0                       # stat (Unspecified)
system.mem_ctrl1.totTimeFarRdtoRecv           1543065                       # stat (Unspecified)
system.mem_ctrl1.totTimeFarWrtoSend                 0                       # stat (Unspecified)
system.mem_ctrl1.totTimeInLocRead            19599694                       # stat (Unspecified)
system.mem_ctrl1.totTimeInLocWrite            2320944                       # stat (Unspecified)
system.mem_ctrl1.totTimeInFarRead             1543065                       # stat (Unspecified)
system.mem_ctrl1.numTotHits                         0                       # stat (Unspecified)
system.mem_ctrl1.numTotMisses                    5953                       # stat (Unspecified)
system.mem_ctrl1.numColdMisses                   4939                       # stat (Unspecified)
system.mem_ctrl1.numHotMisses                    1014                       # stat (Unspecified)
system.mem_ctrl1.numRdMissClean                  5953                       # stat (Unspecified)
system.mem_ctrl1.numRdMissDirty                     0                       # stat (Unspecified)
system.mem_ctrl1.numRdHit                           0                       # stat (Unspecified)
system.mem_ctrl1.numWrMissClean                     0                       # stat (Unspecified)
system.mem_ctrl1.numWrMissDirty                     0                       # stat (Unspecified)
system.mem_ctrl1.numWrHit                           0                       # stat (Unspecified)
system.mem_ctrl1.numRdHitDirty                      0                       # stat (Unspecified)
system.mem_ctrl1.numRdHitClean                      0                       # stat (Unspecified)
system.mem_ctrl1.numWrHitDirty                      0                       # stat (Unspecified)
system.mem_ctrl1.numWrHitClean                      0                       # stat (Unspecified)
system.mem_ctrl1.power_state.pwrStateResidencyTicks::UNDEFINED     99999999                       # Cumulative time (in ticks) in various power states (Tick)
system.membus.transDist::ReadReq                11861                       # Transaction distribution (Count)
system.membus.transDist::ReadResp               11427                       # Transaction distribution (Count)
system.membus.pktCount_system.generators0.port::system.mem_ctrl0.port         5716                       # Packet count per connected requestor and responder (Count)
system.membus.pktCount_system.generators0.port::system.mem_ctrl1.port         5959                       # Packet count per connected requestor and responder (Count)
system.membus.pktCount_system.generators0.port::total        11675                       # Packet count per connected requestor and responder (Count)
system.membus.pktCount_system.generators1.port::system.mem_ctrl0.port         5890                       # Packet count per connected requestor and responder (Count)
system.membus.pktCount_system.generators1.port::system.mem_ctrl1.port         5723                       # Packet count per connected requestor and responder (Count)
system.membus.pktCount_system.generators1.port::total        11613                       # Packet count per connected requestor and responder (Count)
system.membus.pktCount::total                   23288                       # Packet count per connected requestor and responder (Count)
system.membus.pktSize_system.generators0.port::system.mem_ctrl0.port       179712                       # Cumulative packet size per connected requestor and responder (Byte)
system.membus.pktSize_system.generators0.port::system.mem_ctrl1.port       187008                       # Cumulative packet size per connected requestor and responder (Byte)
system.membus.pktSize_system.generators0.port::total       366720                       # Cumulative packet size per connected requestor and responder (Byte)
system.membus.pktSize_system.generators1.port::system.mem_ctrl0.port       185280                       # Cumulative packet size per connected requestor and responder (Byte)
system.membus.pktSize_system.generators1.port::system.mem_ctrl1.port       179328                       # Cumulative packet size per connected requestor and responder (Byte)
system.membus.pktSize_system.generators1.port::total       364608                       # Cumulative packet size per connected requestor and responder (Byte)
system.membus.pktSize::total                   731328                       # Cumulative packet size per connected requestor and responder (Byte)
system.membus.power_state.pwrStateResidencyTicks::UNDEFINED     99999999                       # Cumulative time (in ticks) in various power states (Tick)
system.membus.reqLayer0.occupancy             2217698                       # Layer occupancy (ticks) (Tick)
system.membus.reqLayer0.utilization               0.0                       # Layer utilization (Ratio)
system.membus.reqLayer1.occupancy             2107279                       # Layer occupancy (ticks) (Tick)
system.membus.reqLayer1.utilization               0.0                       # Layer utilization (Ratio)
system.membus.respLayer0.occupancy            2729123                       # Layer occupancy (ticks) (Tick)
system.membus.respLayer0.utilization              0.0                       # Layer utilization (Ratio)
system.membus.respLayer1.occupancy            2718517                       # Layer occupancy (ticks) (Tick)
system.membus.respLayer1.utilization              0.0                       # Layer utilization (Ratio)
system.workload.inst.arm                            0                       # number of arm instructions executed (Count)
system.workload.inst.quiesce                        0                       # number of quiesce instructions executed (Count)

---------- End Simulation Statistics   ----------
