
---------- Begin Simulation Statistics ----------
simSeconds                                   0.000100                       # Number of seconds simulated (Second)
simTicks                                    100078000                       # Number of ticks simulated (Tick)
finalTick                                   100078000                       # Number of ticks from beginning of simulation (restored from checkpoints and never reset) (Tick)
simFreq                                  1000000000000                       # The number of ticks per simulated second ((Tick/Second))
hostSeconds                                      0.29                       # Real time elapsed on the host (Second)
hostTickRate                                339519594                       # The number of ticks simulated per host second (ticks/s) ((Tick/Second))
hostMemory                                    8501668                       # Number of bytes of host memory used (Byte)
system.clk_domain.clock                           200                       # Clock period in ticks (Tick)
system.clk_domain.voltage_domain.voltage            1                       # Voltage in Volts (Volt)
system.far_mem_ctrl0.avgPriority_writebacks::samples      3385.00                       # Average QoS priority value for accepted requests (Count)
system.far_mem_ctrl0.priorityMinLatency  0.000000317492                       # per QoS priority minimum request to response latency (Second)
system.far_mem_ctrl0.priorityMaxLatency  0.000056765490                       # per QoS priority maximum request to response latency (Second)
system.far_mem_ctrl0.numReadWriteTurnArounds           20                       # Number of turnarounds from READ to WRITE (Count)
system.far_mem_ctrl0.numWriteReadTurnArounds           20                       # Number of turnarounds from WRITE to READ (Count)
system.far_mem_ctrl0.numStayReadState            9486                       # Number of times bus staying in READ state (Count)
system.far_mem_ctrl0.numStayWriteState            354                       # Number of times bus staying in WRITE state (Count)
system.far_mem_ctrl0.readReqs                    2914                       # Number of read requests accepted (Count)
system.far_mem_ctrl0.writeReqs                    471                       # Number of write requests accepted (Count)
system.far_mem_ctrl0.readBursts                  2914                       # Number of controller read bursts, including those serviced by the write queue (Count)
system.far_mem_ctrl0.writeBursts                  471                       # Number of controller write bursts, including those merged in the write queue (Count)
system.far_mem_ctrl0.servicedByWrQ                  0                       # Number of controller read bursts serviced by the write queue (Count)
system.far_mem_ctrl0.mergedWrBursts                 0                       # Number of controller write bursts merged with an existing one (Count)
system.far_mem_ctrl0.neitherReadNorWriteReqs            0                       # Number of requests that are neither read nor write (Count)
system.far_mem_ctrl0.avgRdQLen                  10.25                       # Average read queue length when enqueuing ((Count/Tick))
system.far_mem_ctrl0.avgWrQLen                  54.36                       # Average write queue length when enqueuing ((Count/Tick))
system.far_mem_ctrl0.numRdRetry                     0                       # Number of times read queue was full causing retry (Count)
system.far_mem_ctrl0.numWrRetry                     0                       # Number of times write queue was full causing retry (Count)
system.far_mem_ctrl0.readPktSize::0                 0                       # Read request sizes (log2) (Count)
system.far_mem_ctrl0.readPktSize::1                 0                       # Read request sizes (log2) (Count)
system.far_mem_ctrl0.readPktSize::2                 0                       # Read request sizes (log2) (Count)
system.far_mem_ctrl0.readPktSize::3                 0                       # Read request sizes (log2) (Count)
system.far_mem_ctrl0.readPktSize::4                 0                       # Read request sizes (log2) (Count)
system.far_mem_ctrl0.readPktSize::5                 0                       # Read request sizes (log2) (Count)
system.far_mem_ctrl0.readPktSize::6              2914                       # Read request sizes (log2) (Count)
system.far_mem_ctrl0.writePktSize::0                0                       # Write request sizes (log2) (Count)
system.far_mem_ctrl0.writePktSize::1                0                       # Write request sizes (log2) (Count)
system.far_mem_ctrl0.writePktSize::2                0                       # Write request sizes (log2) (Count)
system.far_mem_ctrl0.writePktSize::3                0                       # Write request sizes (log2) (Count)
system.far_mem_ctrl0.writePktSize::4                0                       # Write request sizes (log2) (Count)
system.far_mem_ctrl0.writePktSize::5                0                       # Write request sizes (log2) (Count)
system.far_mem_ctrl0.writePktSize::6              471                       # Write request sizes (log2) (Count)
system.far_mem_ctrl0.rdQLenPdf::0                  29                       # What read queue length does an incoming req see (Count)
system.far_mem_ctrl0.rdQLenPdf::1                 100                       # What read queue length does an incoming req see (Count)
system.far_mem_ctrl0.rdQLenPdf::2                 163                       # What read queue length does an incoming req see (Count)
system.far_mem_ctrl0.rdQLenPdf::3                 232                       # What read queue length does an incoming req see (Count)
system.far_mem_ctrl0.rdQLenPdf::4                 252                       # What read queue length does an incoming req see (Count)
system.far_mem_ctrl0.rdQLenPdf::5                 282                       # What read queue length does an incoming req see (Count)
system.far_mem_ctrl0.rdQLenPdf::6                 292                       # What read queue length does an incoming req see (Count)
system.far_mem_ctrl0.rdQLenPdf::7                 268                       # What read queue length does an incoming req see (Count)
system.far_mem_ctrl0.rdQLenPdf::8                 212                       # What read queue length does an incoming req see (Count)
system.far_mem_ctrl0.rdQLenPdf::9                 190                       # What read queue length does an incoming req see (Count)
system.far_mem_ctrl0.rdQLenPdf::10                165                       # What read queue length does an incoming req see (Count)
system.far_mem_ctrl0.rdQLenPdf::11                147                       # What read queue length does an incoming req see (Count)
system.far_mem_ctrl0.rdQLenPdf::12                126                       # What read queue length does an incoming req see (Count)
system.far_mem_ctrl0.rdQLenPdf::13                104                       # What read queue length does an incoming req see (Count)
system.far_mem_ctrl0.rdQLenPdf::14                 79                       # What read queue length does an incoming req see (Count)
system.far_mem_ctrl0.rdQLenPdf::15                 67                       # What read queue length does an incoming req see (Count)
system.far_mem_ctrl0.rdQLenPdf::16                 44                       # What read queue length does an incoming req see (Count)
system.far_mem_ctrl0.rdQLenPdf::17                 36                       # What read queue length does an incoming req see (Count)
system.far_mem_ctrl0.rdQLenPdf::18                 25                       # What read queue length does an incoming req see (Count)
system.far_mem_ctrl0.rdQLenPdf::19                 19                       # What read queue length does an incoming req see (Count)
system.far_mem_ctrl0.rdQLenPdf::20                 13                       # What read queue length does an incoming req see (Count)
system.far_mem_ctrl0.rdQLenPdf::21                 10                       # What read queue length does an incoming req see (Count)
system.far_mem_ctrl0.rdQLenPdf::22                  9                       # What read queue length does an incoming req see (Count)
system.far_mem_ctrl0.rdQLenPdf::23                 10                       # What read queue length does an incoming req see (Count)
system.far_mem_ctrl0.rdQLenPdf::24                 10                       # What read queue length does an incoming req see (Count)
system.far_mem_ctrl0.rdQLenPdf::25                 10                       # What read queue length does an incoming req see (Count)
system.far_mem_ctrl0.rdQLenPdf::26                  5                       # What read queue length does an incoming req see (Count)
system.far_mem_ctrl0.rdQLenPdf::27                  4                       # What read queue length does an incoming req see (Count)
system.far_mem_ctrl0.rdQLenPdf::28                  6                       # What read queue length does an incoming req see (Count)
system.far_mem_ctrl0.rdQLenPdf::29                  3                       # What read queue length does an incoming req see (Count)
system.far_mem_ctrl0.rdQLenPdf::30                  1                       # What read queue length does an incoming req see (Count)
system.far_mem_ctrl0.rdQLenPdf::31                  1                       # What read queue length does an incoming req see (Count)
system.far_mem_ctrl0.rdQLenPdf::32                  0                       # What read queue length does an incoming req see (Count)
system.far_mem_ctrl0.rdQLenPdf::33                  0                       # What read queue length does an incoming req see (Count)
system.far_mem_ctrl0.rdQLenPdf::34                  0                       # What read queue length does an incoming req see (Count)
system.far_mem_ctrl0.rdQLenPdf::35                  0                       # What read queue length does an incoming req see (Count)
system.far_mem_ctrl0.rdQLenPdf::36                  0                       # What read queue length does an incoming req see (Count)
system.far_mem_ctrl0.rdQLenPdf::37                  0                       # What read queue length does an incoming req see (Count)
system.far_mem_ctrl0.rdQLenPdf::38                  0                       # What read queue length does an incoming req see (Count)
system.far_mem_ctrl0.rdQLenPdf::39                  0                       # What read queue length does an incoming req see (Count)
system.far_mem_ctrl0.rdQLenPdf::40                  0                       # What read queue length does an incoming req see (Count)
system.far_mem_ctrl0.rdQLenPdf::41                  0                       # What read queue length does an incoming req see (Count)
system.far_mem_ctrl0.rdQLenPdf::42                  0                       # What read queue length does an incoming req see (Count)
system.far_mem_ctrl0.rdQLenPdf::43                  0                       # What read queue length does an incoming req see (Count)
system.far_mem_ctrl0.rdQLenPdf::44                  0                       # What read queue length does an incoming req see (Count)
system.far_mem_ctrl0.rdQLenPdf::45                  0                       # What read queue length does an incoming req see (Count)
system.far_mem_ctrl0.rdQLenPdf::46                  0                       # What read queue length does an incoming req see (Count)
system.far_mem_ctrl0.rdQLenPdf::47                  0                       # What read queue length does an incoming req see (Count)
system.far_mem_ctrl0.rdQLenPdf::48                  0                       # What read queue length does an incoming req see (Count)
system.far_mem_ctrl0.rdQLenPdf::49                  0                       # What read queue length does an incoming req see (Count)
system.far_mem_ctrl0.rdQLenPdf::50                  0                       # What read queue length does an incoming req see (Count)
system.far_mem_ctrl0.rdQLenPdf::51                  0                       # What read queue length does an incoming req see (Count)
system.far_mem_ctrl0.rdQLenPdf::52                  0                       # What read queue length does an incoming req see (Count)
system.far_mem_ctrl0.rdQLenPdf::53                  0                       # What read queue length does an incoming req see (Count)
system.far_mem_ctrl0.rdQLenPdf::54                  0                       # What read queue length does an incoming req see (Count)
system.far_mem_ctrl0.rdQLenPdf::55                  0                       # What read queue length does an incoming req see (Count)
system.far_mem_ctrl0.rdQLenPdf::56                  0                       # What read queue length does an incoming req see (Count)
system.far_mem_ctrl0.rdQLenPdf::57                  0                       # What read queue length does an incoming req see (Count)
system.far_mem_ctrl0.rdQLenPdf::58                  0                       # What read queue length does an incoming req see (Count)
system.far_mem_ctrl0.rdQLenPdf::59                  0                       # What read queue length does an incoming req see (Count)
system.far_mem_ctrl0.rdQLenPdf::60                  0                       # What read queue length does an incoming req see (Count)
system.far_mem_ctrl0.rdQLenPdf::61                  0                       # What read queue length does an incoming req see (Count)
system.far_mem_ctrl0.rdQLenPdf::62                  0                       # What read queue length does an incoming req see (Count)
system.far_mem_ctrl0.rdQLenPdf::63                  0                       # What read queue length does an incoming req see (Count)
system.far_mem_ctrl0.rdQLenPdf::64                  0                       # What read queue length does an incoming req see (Count)
system.far_mem_ctrl0.rdQLenPdf::65                  0                       # What read queue length does an incoming req see (Count)
system.far_mem_ctrl0.rdQLenPdf::66                  0                       # What read queue length does an incoming req see (Count)
system.far_mem_ctrl0.rdQLenPdf::67                  0                       # What read queue length does an incoming req see (Count)
system.far_mem_ctrl0.rdQLenPdf::68                  0                       # What read queue length does an incoming req see (Count)
system.far_mem_ctrl0.rdQLenPdf::69                  0                       # What read queue length does an incoming req see (Count)
system.far_mem_ctrl0.rdQLenPdf::70                  0                       # What read queue length does an incoming req see (Count)
system.far_mem_ctrl0.rdQLenPdf::71                  0                       # What read queue length does an incoming req see (Count)
system.far_mem_ctrl0.rdQLenPdf::72                  0                       # What read queue length does an incoming req see (Count)
system.far_mem_ctrl0.rdQLenPdf::73                  0                       # What read queue length does an incoming req see (Count)
system.far_mem_ctrl0.rdQLenPdf::74                  0                       # What read queue length does an incoming req see (Count)
system.far_mem_ctrl0.rdQLenPdf::75                  0                       # What read queue length does an incoming req see (Count)
system.far_mem_ctrl0.rdQLenPdf::76                  0                       # What read queue length does an incoming req see (Count)
system.far_mem_ctrl0.rdQLenPdf::77                  0                       # What read queue length does an incoming req see (Count)
system.far_mem_ctrl0.rdQLenPdf::78                  0                       # What read queue length does an incoming req see (Count)
system.far_mem_ctrl0.rdQLenPdf::79                  0                       # What read queue length does an incoming req see (Count)
system.far_mem_ctrl0.rdQLenPdf::80                  0                       # What read queue length does an incoming req see (Count)
system.far_mem_ctrl0.rdQLenPdf::81                  0                       # What read queue length does an incoming req see (Count)
system.far_mem_ctrl0.rdQLenPdf::82                  0                       # What read queue length does an incoming req see (Count)
system.far_mem_ctrl0.rdQLenPdf::83                  0                       # What read queue length does an incoming req see (Count)
system.far_mem_ctrl0.rdQLenPdf::84                  0                       # What read queue length does an incoming req see (Count)
system.far_mem_ctrl0.rdQLenPdf::85                  0                       # What read queue length does an incoming req see (Count)
system.far_mem_ctrl0.rdQLenPdf::86                  0                       # What read queue length does an incoming req see (Count)
system.far_mem_ctrl0.rdQLenPdf::87                  0                       # What read queue length does an incoming req see (Count)
system.far_mem_ctrl0.rdQLenPdf::88                  0                       # What read queue length does an incoming req see (Count)
system.far_mem_ctrl0.rdQLenPdf::89                  0                       # What read queue length does an incoming req see (Count)
system.far_mem_ctrl0.rdQLenPdf::90                  0                       # What read queue length does an incoming req see (Count)
system.far_mem_ctrl0.rdQLenPdf::91                  0                       # What read queue length does an incoming req see (Count)
system.far_mem_ctrl0.rdQLenPdf::92                  0                       # What read queue length does an incoming req see (Count)
system.far_mem_ctrl0.rdQLenPdf::93                  0                       # What read queue length does an incoming req see (Count)
system.far_mem_ctrl0.rdQLenPdf::94                  0                       # What read queue length does an incoming req see (Count)
system.far_mem_ctrl0.rdQLenPdf::95                  0                       # What read queue length does an incoming req see (Count)
system.far_mem_ctrl0.rdQLenPdf::96                  0                       # What read queue length does an incoming req see (Count)
system.far_mem_ctrl0.rdQLenPdf::97                  0                       # What read queue length does an incoming req see (Count)
system.far_mem_ctrl0.rdQLenPdf::98                  0                       # What read queue length does an incoming req see (Count)
system.far_mem_ctrl0.rdQLenPdf::99                  0                       # What read queue length does an incoming req see (Count)
system.far_mem_ctrl0.rdQLenPdf::100                 0                       # What read queue length does an incoming req see (Count)
system.far_mem_ctrl0.rdQLenPdf::101                 0                       # What read queue length does an incoming req see (Count)
system.far_mem_ctrl0.rdQLenPdf::102                 0                       # What read queue length does an incoming req see (Count)
system.far_mem_ctrl0.rdQLenPdf::103                 0                       # What read queue length does an incoming req see (Count)
system.far_mem_ctrl0.rdQLenPdf::104                 0                       # What read queue length does an incoming req see (Count)
system.far_mem_ctrl0.rdQLenPdf::105                 0                       # What read queue length does an incoming req see (Count)
system.far_mem_ctrl0.rdQLenPdf::106                 0                       # What read queue length does an incoming req see (Count)
system.far_mem_ctrl0.rdQLenPdf::107                 0                       # What read queue length does an incoming req see (Count)
system.far_mem_ctrl0.rdQLenPdf::108                 0                       # What read queue length does an incoming req see (Count)
system.far_mem_ctrl0.rdQLenPdf::109                 0                       # What read queue length does an incoming req see (Count)
system.far_mem_ctrl0.rdQLenPdf::110                 0                       # What read queue length does an incoming req see (Count)
system.far_mem_ctrl0.rdQLenPdf::111                 0                       # What read queue length does an incoming req see (Count)
system.far_mem_ctrl0.rdQLenPdf::112                 0                       # What read queue length does an incoming req see (Count)
system.far_mem_ctrl0.rdQLenPdf::113                 0                       # What read queue length does an incoming req see (Count)
system.far_mem_ctrl0.rdQLenPdf::114                 0                       # What read queue length does an incoming req see (Count)
system.far_mem_ctrl0.rdQLenPdf::115                 0                       # What read queue length does an incoming req see (Count)
system.far_mem_ctrl0.rdQLenPdf::116                 0                       # What read queue length does an incoming req see (Count)
system.far_mem_ctrl0.rdQLenPdf::117                 0                       # What read queue length does an incoming req see (Count)
system.far_mem_ctrl0.rdQLenPdf::118                 0                       # What read queue length does an incoming req see (Count)
system.far_mem_ctrl0.rdQLenPdf::119                 0                       # What read queue length does an incoming req see (Count)
system.far_mem_ctrl0.rdQLenPdf::120                 0                       # What read queue length does an incoming req see (Count)
system.far_mem_ctrl0.rdQLenPdf::121                 0                       # What read queue length does an incoming req see (Count)
system.far_mem_ctrl0.rdQLenPdf::122                 0                       # What read queue length does an incoming req see (Count)
system.far_mem_ctrl0.rdQLenPdf::123                 0                       # What read queue length does an incoming req see (Count)
system.far_mem_ctrl0.rdQLenPdf::124                 0                       # What read queue length does an incoming req see (Count)
system.far_mem_ctrl0.rdQLenPdf::125                 0                       # What read queue length does an incoming req see (Count)
system.far_mem_ctrl0.rdQLenPdf::126                 0                       # What read queue length does an incoming req see (Count)
system.far_mem_ctrl0.rdQLenPdf::127                 0                       # What read queue length does an incoming req see (Count)
system.far_mem_ctrl0.wrQLenPdf::0                   1                       # What write queue length does an incoming req see (Count)
system.far_mem_ctrl0.wrQLenPdf::1                   1                       # What write queue length does an incoming req see (Count)
system.far_mem_ctrl0.wrQLenPdf::2                   1                       # What write queue length does an incoming req see (Count)
system.far_mem_ctrl0.wrQLenPdf::3                   1                       # What write queue length does an incoming req see (Count)
system.far_mem_ctrl0.wrQLenPdf::4                   1                       # What write queue length does an incoming req see (Count)
system.far_mem_ctrl0.wrQLenPdf::5                   1                       # What write queue length does an incoming req see (Count)
system.far_mem_ctrl0.wrQLenPdf::6                   1                       # What write queue length does an incoming req see (Count)
system.far_mem_ctrl0.wrQLenPdf::7                   1                       # What write queue length does an incoming req see (Count)
system.far_mem_ctrl0.wrQLenPdf::8                   1                       # What write queue length does an incoming req see (Count)
system.far_mem_ctrl0.wrQLenPdf::9                   1                       # What write queue length does an incoming req see (Count)
system.far_mem_ctrl0.wrQLenPdf::10                  1                       # What write queue length does an incoming req see (Count)
system.far_mem_ctrl0.wrQLenPdf::11                  1                       # What write queue length does an incoming req see (Count)
system.far_mem_ctrl0.wrQLenPdf::12                  1                       # What write queue length does an incoming req see (Count)
system.far_mem_ctrl0.wrQLenPdf::13                  1                       # What write queue length does an incoming req see (Count)
system.far_mem_ctrl0.wrQLenPdf::14                  1                       # What write queue length does an incoming req see (Count)
system.far_mem_ctrl0.wrQLenPdf::15                  1                       # What write queue length does an incoming req see (Count)
system.far_mem_ctrl0.wrQLenPdf::16                  1                       # What write queue length does an incoming req see (Count)
system.far_mem_ctrl0.wrQLenPdf::17                  1                       # What write queue length does an incoming req see (Count)
system.far_mem_ctrl0.wrQLenPdf::18                  1                       # What write queue length does an incoming req see (Count)
system.far_mem_ctrl0.wrQLenPdf::19                  1                       # What write queue length does an incoming req see (Count)
system.far_mem_ctrl0.wrQLenPdf::20                  1                       # What write queue length does an incoming req see (Count)
system.far_mem_ctrl0.wrQLenPdf::21                  1                       # What write queue length does an incoming req see (Count)
system.far_mem_ctrl0.wrQLenPdf::22                  1                       # What write queue length does an incoming req see (Count)
system.far_mem_ctrl0.wrQLenPdf::23                  1                       # What write queue length does an incoming req see (Count)
system.far_mem_ctrl0.wrQLenPdf::24                  1                       # What write queue length does an incoming req see (Count)
system.far_mem_ctrl0.wrQLenPdf::25                  1                       # What write queue length does an incoming req see (Count)
system.far_mem_ctrl0.wrQLenPdf::26                  1                       # What write queue length does an incoming req see (Count)
system.far_mem_ctrl0.wrQLenPdf::27                  1                       # What write queue length does an incoming req see (Count)
system.far_mem_ctrl0.wrQLenPdf::28                  1                       # What write queue length does an incoming req see (Count)
system.far_mem_ctrl0.wrQLenPdf::29                  1                       # What write queue length does an incoming req see (Count)
system.far_mem_ctrl0.wrQLenPdf::30                  1                       # What write queue length does an incoming req see (Count)
system.far_mem_ctrl0.wrQLenPdf::31                  1                       # What write queue length does an incoming req see (Count)
system.far_mem_ctrl0.wrQLenPdf::32                  1                       # What write queue length does an incoming req see (Count)
system.far_mem_ctrl0.wrQLenPdf::33                  1                       # What write queue length does an incoming req see (Count)
system.far_mem_ctrl0.wrQLenPdf::34                  1                       # What write queue length does an incoming req see (Count)
system.far_mem_ctrl0.wrQLenPdf::35                  1                       # What write queue length does an incoming req see (Count)
system.far_mem_ctrl0.wrQLenPdf::36                  1                       # What write queue length does an incoming req see (Count)
system.far_mem_ctrl0.wrQLenPdf::37                  1                       # What write queue length does an incoming req see (Count)
system.far_mem_ctrl0.wrQLenPdf::38                  1                       # What write queue length does an incoming req see (Count)
system.far_mem_ctrl0.wrQLenPdf::39                  1                       # What write queue length does an incoming req see (Count)
system.far_mem_ctrl0.wrQLenPdf::40                  1                       # What write queue length does an incoming req see (Count)
system.far_mem_ctrl0.wrQLenPdf::41                  1                       # What write queue length does an incoming req see (Count)
system.far_mem_ctrl0.wrQLenPdf::42                  1                       # What write queue length does an incoming req see (Count)
system.far_mem_ctrl0.wrQLenPdf::43                  1                       # What write queue length does an incoming req see (Count)
system.far_mem_ctrl0.wrQLenPdf::44                  1                       # What write queue length does an incoming req see (Count)
system.far_mem_ctrl0.wrQLenPdf::45                  1                       # What write queue length does an incoming req see (Count)
system.far_mem_ctrl0.wrQLenPdf::46                  1                       # What write queue length does an incoming req see (Count)
system.far_mem_ctrl0.wrQLenPdf::47                  3                       # What write queue length does an incoming req see (Count)
system.far_mem_ctrl0.wrQLenPdf::48                  3                       # What write queue length does an incoming req see (Count)
system.far_mem_ctrl0.wrQLenPdf::49                  3                       # What write queue length does an incoming req see (Count)
system.far_mem_ctrl0.wrQLenPdf::50                  4                       # What write queue length does an incoming req see (Count)
system.far_mem_ctrl0.wrQLenPdf::51                  7                       # What write queue length does an incoming req see (Count)
system.far_mem_ctrl0.wrQLenPdf::52                  8                       # What write queue length does an incoming req see (Count)
system.far_mem_ctrl0.wrQLenPdf::53                  9                       # What write queue length does an incoming req see (Count)
system.far_mem_ctrl0.wrQLenPdf::54                 10                       # What write queue length does an incoming req see (Count)
system.far_mem_ctrl0.wrQLenPdf::55                 11                       # What write queue length does an incoming req see (Count)
system.far_mem_ctrl0.wrQLenPdf::56                 11                       # What write queue length does an incoming req see (Count)
system.far_mem_ctrl0.wrQLenPdf::57                 12                       # What write queue length does an incoming req see (Count)
system.far_mem_ctrl0.wrQLenPdf::58                 12                       # What write queue length does an incoming req see (Count)
system.far_mem_ctrl0.wrQLenPdf::59                 12                       # What write queue length does an incoming req see (Count)
system.far_mem_ctrl0.wrQLenPdf::60                 12                       # What write queue length does an incoming req see (Count)
system.far_mem_ctrl0.wrQLenPdf::61                 12                       # What write queue length does an incoming req see (Count)
system.far_mem_ctrl0.wrQLenPdf::62                 12                       # What write queue length does an incoming req see (Count)
system.far_mem_ctrl0.wrQLenPdf::63                 12                       # What write queue length does an incoming req see (Count)
system.far_mem_ctrl0.wrQLenPdf::64                 12                       # What write queue length does an incoming req see (Count)
system.far_mem_ctrl0.wrQLenPdf::65                 13                       # What write queue length does an incoming req see (Count)
system.far_mem_ctrl0.wrQLenPdf::66                 13                       # What write queue length does an incoming req see (Count)
system.far_mem_ctrl0.wrQLenPdf::67                  8                       # What write queue length does an incoming req see (Count)
system.far_mem_ctrl0.wrQLenPdf::68                  9                       # What write queue length does an incoming req see (Count)
system.far_mem_ctrl0.wrQLenPdf::69                  7                       # What write queue length does an incoming req see (Count)
system.far_mem_ctrl0.wrQLenPdf::70                  9                       # What write queue length does an incoming req see (Count)
system.far_mem_ctrl0.wrQLenPdf::71                  7                       # What write queue length does an incoming req see (Count)
system.far_mem_ctrl0.wrQLenPdf::72                  7                       # What write queue length does an incoming req see (Count)
system.far_mem_ctrl0.wrQLenPdf::73                  6                       # What write queue length does an incoming req see (Count)
system.far_mem_ctrl0.wrQLenPdf::74                  6                       # What write queue length does an incoming req see (Count)
system.far_mem_ctrl0.wrQLenPdf::75                  6                       # What write queue length does an incoming req see (Count)
system.far_mem_ctrl0.wrQLenPdf::76                  8                       # What write queue length does an incoming req see (Count)
system.far_mem_ctrl0.wrQLenPdf::77                  8                       # What write queue length does an incoming req see (Count)
system.far_mem_ctrl0.wrQLenPdf::78                  8                       # What write queue length does an incoming req see (Count)
system.far_mem_ctrl0.wrQLenPdf::79                  7                       # What write queue length does an incoming req see (Count)
system.far_mem_ctrl0.wrQLenPdf::80                  7                       # What write queue length does an incoming req see (Count)
system.far_mem_ctrl0.wrQLenPdf::81                  8                       # What write queue length does an incoming req see (Count)
system.far_mem_ctrl0.wrQLenPdf::82                  9                       # What write queue length does an incoming req see (Count)
system.far_mem_ctrl0.wrQLenPdf::83                  8                       # What write queue length does an incoming req see (Count)
system.far_mem_ctrl0.wrQLenPdf::84                  9                       # What write queue length does an incoming req see (Count)
system.far_mem_ctrl0.wrQLenPdf::85                  8                       # What write queue length does an incoming req see (Count)
system.far_mem_ctrl0.wrQLenPdf::86                  8                       # What write queue length does an incoming req see (Count)
system.far_mem_ctrl0.wrQLenPdf::87                  7                       # What write queue length does an incoming req see (Count)
system.far_mem_ctrl0.wrQLenPdf::88                  6                       # What write queue length does an incoming req see (Count)
system.far_mem_ctrl0.wrQLenPdf::89                  6                       # What write queue length does an incoming req see (Count)
system.far_mem_ctrl0.wrQLenPdf::90                  9                       # What write queue length does an incoming req see (Count)
system.far_mem_ctrl0.wrQLenPdf::91                  6                       # What write queue length does an incoming req see (Count)
system.far_mem_ctrl0.wrQLenPdf::92                  6                       # What write queue length does an incoming req see (Count)
system.far_mem_ctrl0.wrQLenPdf::93                  6                       # What write queue length does an incoming req see (Count)
system.far_mem_ctrl0.wrQLenPdf::94                  5                       # What write queue length does an incoming req see (Count)
system.far_mem_ctrl0.wrQLenPdf::95                  4                       # What write queue length does an incoming req see (Count)
system.far_mem_ctrl0.wrQLenPdf::96                  4                       # What write queue length does an incoming req see (Count)
system.far_mem_ctrl0.wrQLenPdf::97                  3                       # What write queue length does an incoming req see (Count)
system.far_mem_ctrl0.wrQLenPdf::98                  3                       # What write queue length does an incoming req see (Count)
system.far_mem_ctrl0.wrQLenPdf::99                  2                       # What write queue length does an incoming req see (Count)
system.far_mem_ctrl0.wrQLenPdf::100                 2                       # What write queue length does an incoming req see (Count)
system.far_mem_ctrl0.wrQLenPdf::101                 2                       # What write queue length does an incoming req see (Count)
system.far_mem_ctrl0.wrQLenPdf::102                 2                       # What write queue length does an incoming req see (Count)
system.far_mem_ctrl0.wrQLenPdf::103                 2                       # What write queue length does an incoming req see (Count)
system.far_mem_ctrl0.wrQLenPdf::104                 2                       # What write queue length does an incoming req see (Count)
system.far_mem_ctrl0.wrQLenPdf::105                 2                       # What write queue length does an incoming req see (Count)
system.far_mem_ctrl0.wrQLenPdf::106                 1                       # What write queue length does an incoming req see (Count)
system.far_mem_ctrl0.wrQLenPdf::107                 0                       # What write queue length does an incoming req see (Count)
system.far_mem_ctrl0.wrQLenPdf::108                 0                       # What write queue length does an incoming req see (Count)
system.far_mem_ctrl0.wrQLenPdf::109                 0                       # What write queue length does an incoming req see (Count)
system.far_mem_ctrl0.wrQLenPdf::110                 0                       # What write queue length does an incoming req see (Count)
system.far_mem_ctrl0.wrQLenPdf::111                 0                       # What write queue length does an incoming req see (Count)
system.far_mem_ctrl0.wrQLenPdf::112                 0                       # What write queue length does an incoming req see (Count)
system.far_mem_ctrl0.wrQLenPdf::113                 0                       # What write queue length does an incoming req see (Count)
system.far_mem_ctrl0.wrQLenPdf::114                 0                       # What write queue length does an incoming req see (Count)
system.far_mem_ctrl0.wrQLenPdf::115                 0                       # What write queue length does an incoming req see (Count)
system.far_mem_ctrl0.wrQLenPdf::116                 0                       # What write queue length does an incoming req see (Count)
system.far_mem_ctrl0.wrQLenPdf::117                 0                       # What write queue length does an incoming req see (Count)
system.far_mem_ctrl0.wrQLenPdf::118                 0                       # What write queue length does an incoming req see (Count)
system.far_mem_ctrl0.wrQLenPdf::119                 0                       # What write queue length does an incoming req see (Count)
system.far_mem_ctrl0.wrQLenPdf::120                 0                       # What write queue length does an incoming req see (Count)
system.far_mem_ctrl0.wrQLenPdf::121                 0                       # What write queue length does an incoming req see (Count)
system.far_mem_ctrl0.wrQLenPdf::122                 0                       # What write queue length does an incoming req see (Count)
system.far_mem_ctrl0.wrQLenPdf::123                 0                       # What write queue length does an incoming req see (Count)
system.far_mem_ctrl0.wrQLenPdf::124                 0                       # What write queue length does an incoming req see (Count)
system.far_mem_ctrl0.wrQLenPdf::125                 0                       # What write queue length does an incoming req see (Count)
system.far_mem_ctrl0.wrQLenPdf::126                 0                       # What write queue length does an incoming req see (Count)
system.far_mem_ctrl0.wrQLenPdf::127                 0                       # What write queue length does an incoming req see (Count)
system.far_mem_ctrl0.rdPerTurnAround::samples           20                       # Reads before turning the bus around for writes (Count)
system.far_mem_ctrl0.rdPerTurnAround::mean   143.750000                       # Reads before turning the bus around for writes (Count)
system.far_mem_ctrl0.rdPerTurnAround::gmean   103.284563                       # Reads before turning the bus around for writes (Count)
system.far_mem_ctrl0.rdPerTurnAround::stdev   208.480688                       # Reads before turning the bus around for writes (Count)
system.far_mem_ctrl0.rdPerTurnAround::32-39            1      5.00%      5.00% # Reads before turning the bus around for writes (Count)
system.far_mem_ctrl0.rdPerTurnAround::40-47            1      5.00%     10.00% # Reads before turning the bus around for writes (Count)
system.far_mem_ctrl0.rdPerTurnAround::64-71            1      5.00%     15.00% # Reads before turning the bus around for writes (Count)
system.far_mem_ctrl0.rdPerTurnAround::72-79            3     15.00%     30.00% # Reads before turning the bus around for writes (Count)
system.far_mem_ctrl0.rdPerTurnAround::80-87            1      5.00%     35.00% # Reads before turning the bus around for writes (Count)
system.far_mem_ctrl0.rdPerTurnAround::88-95            3     15.00%     50.00% # Reads before turning the bus around for writes (Count)
system.far_mem_ctrl0.rdPerTurnAround::96-103            2     10.00%     60.00% # Reads before turning the bus around for writes (Count)
system.far_mem_ctrl0.rdPerTurnAround::120-127            2     10.00%     70.00% # Reads before turning the bus around for writes (Count)
system.far_mem_ctrl0.rdPerTurnAround::128-135            3     15.00%     85.00% # Reads before turning the bus around for writes (Count)
system.far_mem_ctrl0.rdPerTurnAround::136-143            1      5.00%     90.00% # Reads before turning the bus around for writes (Count)
system.far_mem_ctrl0.rdPerTurnAround::144-151            1      5.00%     95.00% # Reads before turning the bus around for writes (Count)
system.far_mem_ctrl0.rdPerTurnAround::1016-1023            1      5.00%    100.00% # Reads before turning the bus around for writes (Count)
system.far_mem_ctrl0.rdPerTurnAround::total           20                       # Reads before turning the bus around for writes (Count)
system.far_mem_ctrl0.wrPerTurnAround::samples           20                       # Writes before turning the bus around for reads (Count)
system.far_mem_ctrl0.wrPerTurnAround::mean    18.700000                       # Writes before turning the bus around for reads (Count)
system.far_mem_ctrl0.wrPerTurnAround::gmean    18.096675                       # Writes before turning the bus around for reads (Count)
system.far_mem_ctrl0.wrPerTurnAround::stdev     5.768335                       # Writes before turning the bus around for reads (Count)
system.far_mem_ctrl0.wrPerTurnAround::16           14     70.00%     70.00% # Writes before turning the bus around for reads (Count)
system.far_mem_ctrl0.wrPerTurnAround::18            1      5.00%     75.00% # Writes before turning the bus around for reads (Count)
system.far_mem_ctrl0.wrPerTurnAround::20            1      5.00%     80.00% # Writes before turning the bus around for reads (Count)
system.far_mem_ctrl0.wrPerTurnAround::21            1      5.00%     85.00% # Writes before turning the bus around for reads (Count)
system.far_mem_ctrl0.wrPerTurnAround::22            1      5.00%     90.00% # Writes before turning the bus around for reads (Count)
system.far_mem_ctrl0.wrPerTurnAround::32            1      5.00%     95.00% # Writes before turning the bus around for reads (Count)
system.far_mem_ctrl0.wrPerTurnAround::37            1      5.00%    100.00% # Writes before turning the bus around for reads (Count)
system.far_mem_ctrl0.wrPerTurnAround::total           20                       # Writes before turning the bus around for reads (Count)
system.far_mem_ctrl0.bytesReadWrQ                   0                       # Total number of bytes read from write queue (Byte)
system.far_mem_ctrl0.bytesReadSys              186496                       # Total read bytes from the system interface side (Byte)
system.far_mem_ctrl0.bytesWrittenSys            30144                       # Total written bytes from the system interface side (Byte)
system.far_mem_ctrl0.avgRdBWSys          1863506464.95733333                       # Average system read bandwidth in Byte/s ((Byte/Second))
system.far_mem_ctrl0.avgWrBWSys          301205060.05315852                       # Average system write bandwidth in Byte/s ((Byte/Second))
system.far_mem_ctrl0.totGap                  99997480                       # Total gap between requests (Tick)
system.far_mem_ctrl0.avgGap                  29541.35                       # Average gap between requests ((Tick/Count))
system.far_mem_ctrl0.requestorReadBytes::writebacks       185600                       # Per-requestor bytes read from memory (Byte)
system.far_mem_ctrl0.requestorWriteBytes::writebacks        23936                       # Per-requestor bytes write to memory (Byte)
system.far_mem_ctrl0.requestorReadRate::writebacks 1854553448.310317993164                       # Per-requestor bytes read from memory rate ((Byte/Second))
system.far_mem_ctrl0.requestorWriteRate::writebacks 239173444.713123768568                       # Per-requestor bytes write to memory rate ((Byte/Second))
system.far_mem_ctrl0.requestorReadAccesses::writebacks         2914                       # Per-requestor read serviced memory accesses (Count)
system.far_mem_ctrl0.requestorWriteAccesses::writebacks          471                       # Per-requestor write serviced memory accesses (Count)
system.far_mem_ctrl0.requestorReadTotalLat::writebacks    831799580                       # Per-requestor read total memory access latency (Tick)
system.far_mem_ctrl0.requestorWriteTotalLat::writebacks   4684482744                       # Per-requestor write total memory access latency (Tick)
system.far_mem_ctrl0.requestorReadAvgLat::writebacks    285449.41                       # Per-requestor read average memory access latency ((Tick/Count))
system.far_mem_ctrl0.requestorWriteAvgLat::writebacks   9945823.24                       # Per-requestor write average memory access latency ((Tick/Count))
system.far_mem_ctrl0.dram.bytesRead::writebacks       185600                       # Number of bytes read from this memory (Byte)
system.far_mem_ctrl0.dram.bytesRead::total       185600                       # Number of bytes read from this memory (Byte)
system.far_mem_ctrl0.dram.bytesWritten::writebacks        30144                       # Number of bytes written to this memory (Byte)
system.far_mem_ctrl0.dram.bytesWritten::total        30144                       # Number of bytes written to this memory (Byte)
system.far_mem_ctrl0.dram.numReads::writebacks         2900                       # Number of read requests responded to by this memory (Count)
system.far_mem_ctrl0.dram.numReads::total         2900                       # Number of read requests responded to by this memory (Count)
system.far_mem_ctrl0.dram.numWrites::writebacks          471                       # Number of write requests responded to by this memory (Count)
system.far_mem_ctrl0.dram.numWrites::total          471                       # Number of write requests responded to by this memory (Count)
system.far_mem_ctrl0.dram.bwRead::writebacks   1854553448                       # Total read bandwidth from this memory ((Byte/Second))
system.far_mem_ctrl0.dram.bwRead::total    1854553448                       # Total read bandwidth from this memory ((Byte/Second))
system.far_mem_ctrl0.dram.bwWrite::writebacks    301205060                       # Write bandwidth from this memory ((Byte/Second))
system.far_mem_ctrl0.dram.bwWrite::total    301205060                       # Write bandwidth from this memory ((Byte/Second))
system.far_mem_ctrl0.dram.bwTotal::writebacks   2155758508                       # Total bandwidth to/from this memory ((Byte/Second))
system.far_mem_ctrl0.dram.bwTotal::total   2155758508                       # Total bandwidth to/from this memory ((Byte/Second))
system.far_mem_ctrl0.dram.readBursts             2900                       # Number of NVM read bursts (Count)
system.far_mem_ctrl0.dram.writeBursts             374                       # Number of NVM write bursts (Count)
system.far_mem_ctrl0.dram.perBankRdBursts::0          193                       # Per bank write bursts (Count)
system.far_mem_ctrl0.dram.perBankRdBursts::1          187                       # Per bank write bursts (Count)
system.far_mem_ctrl0.dram.perBankRdBursts::2          187                       # Per bank write bursts (Count)
system.far_mem_ctrl0.dram.perBankRdBursts::3          183                       # Per bank write bursts (Count)
system.far_mem_ctrl0.dram.perBankRdBursts::4          178                       # Per bank write bursts (Count)
system.far_mem_ctrl0.dram.perBankRdBursts::5          174                       # Per bank write bursts (Count)
system.far_mem_ctrl0.dram.perBankRdBursts::6          206                       # Per bank write bursts (Count)
system.far_mem_ctrl0.dram.perBankRdBursts::7          166                       # Per bank write bursts (Count)
system.far_mem_ctrl0.dram.perBankRdBursts::8          180                       # Per bank write bursts (Count)
system.far_mem_ctrl0.dram.perBankRdBursts::9          195                       # Per bank write bursts (Count)
system.far_mem_ctrl0.dram.perBankRdBursts::10          179                       # Per bank write bursts (Count)
system.far_mem_ctrl0.dram.perBankRdBursts::11          180                       # Per bank write bursts (Count)
system.far_mem_ctrl0.dram.perBankRdBursts::12          174                       # Per bank write bursts (Count)
system.far_mem_ctrl0.dram.perBankRdBursts::13          170                       # Per bank write bursts (Count)
system.far_mem_ctrl0.dram.perBankRdBursts::14          151                       # Per bank write bursts (Count)
system.far_mem_ctrl0.dram.perBankRdBursts::15          197                       # Per bank write bursts (Count)
system.far_mem_ctrl0.dram.perBankWrBursts::0           23                       # Per bank write bursts (Count)
system.far_mem_ctrl0.dram.perBankWrBursts::1           20                       # Per bank write bursts (Count)
system.far_mem_ctrl0.dram.perBankWrBursts::2           14                       # Per bank write bursts (Count)
system.far_mem_ctrl0.dram.perBankWrBursts::3           21                       # Per bank write bursts (Count)
system.far_mem_ctrl0.dram.perBankWrBursts::4           22                       # Per bank write bursts (Count)
system.far_mem_ctrl0.dram.perBankWrBursts::5           27                       # Per bank write bursts (Count)
system.far_mem_ctrl0.dram.perBankWrBursts::6           27                       # Per bank write bursts (Count)
system.far_mem_ctrl0.dram.perBankWrBursts::7           34                       # Per bank write bursts (Count)
system.far_mem_ctrl0.dram.perBankWrBursts::8           25                       # Per bank write bursts (Count)
system.far_mem_ctrl0.dram.perBankWrBursts::9           28                       # Per bank write bursts (Count)
system.far_mem_ctrl0.dram.perBankWrBursts::10           28                       # Per bank write bursts (Count)
system.far_mem_ctrl0.dram.perBankWrBursts::11           21                       # Per bank write bursts (Count)
system.far_mem_ctrl0.dram.perBankWrBursts::12           21                       # Per bank write bursts (Count)
system.far_mem_ctrl0.dram.perBankWrBursts::13           20                       # Per bank write bursts (Count)
system.far_mem_ctrl0.dram.perBankWrBursts::14           16                       # Per bank write bursts (Count)
system.far_mem_ctrl0.dram.perBankWrBursts::15           27                       # Per bank write bursts (Count)
system.far_mem_ctrl0.dram.totQLat           781072780                       # Total ticks spent queuing (Tick)
system.far_mem_ctrl0.dram.totBusLat           9662800                       # Total ticks spent in databus transfers (Tick)
system.far_mem_ctrl0.dram.totMemAccLat      831799580                       # Total ticks spent from burst creation until serviced by the NVM (Tick)
system.far_mem_ctrl0.dram.avgQLat           269335.44                       # Average queueing delay per NVM burst ((Tick/Count))
system.far_mem_ctrl0.dram.avgBusLat           3332.00                       # Average bus latency per NVM burst ((Tick/Count))
system.far_mem_ctrl0.dram.avgMemAccLat      286827.44                       # Average memory access latency per NVM burst ((Tick/Count))
system.far_mem_ctrl0.dram.avgRdBW             1854.55                       # Average DRAM read bandwidth in MiBytes/s ((Byte/Second))
system.far_mem_ctrl0.dram.avgWrBW              239.17                       # Average DRAM write bandwidth in MiBytes/s ((Byte/Second))
system.far_mem_ctrl0.dram.peakBW             19207.00                       # Theoretical peak bandwidth in MiByte/s ((Byte/Second))
system.far_mem_ctrl0.dram.busUtil               10.90                       # NVM Data bus utilization in percentage (Ratio)
system.far_mem_ctrl0.dram.busUtilRead            9.66                       # NVM Data bus read utilization in percentage (Ratio)
system.far_mem_ctrl0.dram.busUtilWrite           1.25                       # NVM Data bus write utilization in percentage (Ratio)
system.far_mem_ctrl0.dram.pendingReads::samples         2900                       # Reads issued to NVM for which data has not been transferred (Count)
system.far_mem_ctrl0.dram.pendingReads::mean     7.590345                       # Reads issued to NVM for which data has not been transferred (Count)
system.far_mem_ctrl0.dram.pendingReads::stdev     4.889300                       # Reads issued to NVM for which data has not been transferred (Count)
system.far_mem_ctrl0.dram.pendingReads::0           43      1.48%      1.48% # Reads issued to NVM for which data has not been transferred (Count)
system.far_mem_ctrl0.dram.pendingReads::1          122      4.21%      5.69% # Reads issued to NVM for which data has not been transferred (Count)
system.far_mem_ctrl0.dram.pendingReads::2          169      5.83%     11.52% # Reads issued to NVM for which data has not been transferred (Count)
system.far_mem_ctrl0.dram.pendingReads::3          233      8.03%     19.55% # Reads issued to NVM for which data has not been transferred (Count)
system.far_mem_ctrl0.dram.pendingReads::4          268      9.24%     28.79% # Reads issued to NVM for which data has not been transferred (Count)
system.far_mem_ctrl0.dram.pendingReads::5          295     10.17%     38.97% # Reads issued to NVM for which data has not been transferred (Count)
system.far_mem_ctrl0.dram.pendingReads::6          289      9.97%     48.93% # Reads issued to NVM for which data has not been transferred (Count)
system.far_mem_ctrl0.dram.pendingReads::7          256      8.83%     57.76% # Reads issued to NVM for which data has not been transferred (Count)
system.far_mem_ctrl0.dram.pendingReads::8          194      6.69%     64.45% # Reads issued to NVM for which data has not been transferred (Count)
system.far_mem_ctrl0.dram.pendingReads::9          188      6.48%     70.93% # Reads issued to NVM for which data has not been transferred (Count)
system.far_mem_ctrl0.dram.pendingReads::10          167      5.76%     76.69% # Reads issued to NVM for which data has not been transferred (Count)
system.far_mem_ctrl0.dram.pendingReads::11          135      4.66%     81.34% # Reads issued to NVM for which data has not been transferred (Count)
system.far_mem_ctrl0.dram.pendingReads::12          122      4.21%     85.55% # Reads issued to NVM for which data has not been transferred (Count)
system.far_mem_ctrl0.dram.pendingReads::13           98      3.38%     88.93% # Reads issued to NVM for which data has not been transferred (Count)
system.far_mem_ctrl0.dram.pendingReads::14           77      2.66%     91.59% # Reads issued to NVM for which data has not been transferred (Count)
system.far_mem_ctrl0.dram.pendingReads::15           53      1.83%     93.41% # Reads issued to NVM for which data has not been transferred (Count)
system.far_mem_ctrl0.dram.pendingReads::16           41      1.41%     94.83% # Reads issued to NVM for which data has not been transferred (Count)
system.far_mem_ctrl0.dram.pendingReads::17           33      1.14%     95.97% # Reads issued to NVM for which data has not been transferred (Count)
system.far_mem_ctrl0.dram.pendingReads::18           25      0.86%     96.83% # Reads issued to NVM for which data has not been transferred (Count)
system.far_mem_ctrl0.dram.pendingReads::19           16      0.55%     97.38% # Reads issued to NVM for which data has not been transferred (Count)
system.far_mem_ctrl0.dram.pendingReads::20           10      0.34%     97.72% # Reads issued to NVM for which data has not been transferred (Count)
system.far_mem_ctrl0.dram.pendingReads::21            8      0.28%     98.00% # Reads issued to NVM for which data has not been transferred (Count)
system.far_mem_ctrl0.dram.pendingReads::22           12      0.41%     98.41% # Reads issued to NVM for which data has not been transferred (Count)
system.far_mem_ctrl0.dram.pendingReads::23           11      0.38%     98.79% # Reads issued to NVM for which data has not been transferred (Count)
system.far_mem_ctrl0.dram.pendingReads::24            9      0.31%     99.10% # Reads issued to NVM for which data has not been transferred (Count)
system.far_mem_ctrl0.dram.pendingReads::25            6      0.21%     99.31% # Reads issued to NVM for which data has not been transferred (Count)
system.far_mem_ctrl0.dram.pendingReads::26            7      0.24%     99.55% # Reads issued to NVM for which data has not been transferred (Count)
system.far_mem_ctrl0.dram.pendingReads::27            4      0.14%     99.69% # Reads issued to NVM for which data has not been transferred (Count)
system.far_mem_ctrl0.dram.pendingReads::28            5      0.17%     99.86% # Reads issued to NVM for which data has not been transferred (Count)
system.far_mem_ctrl0.dram.pendingReads::29            2      0.07%     99.93% # Reads issued to NVM for which data has not been transferred (Count)
system.far_mem_ctrl0.dram.pendingReads::30            2      0.07%    100.00% # Reads issued to NVM for which data has not been transferred (Count)
system.far_mem_ctrl0.dram.pendingReads::total         2900                       # Reads issued to NVM for which data has not been transferred (Count)
system.far_mem_ctrl0.dram.pendingWrites::samples          372                       # Number of outstanding writes to NVM (Count)
system.far_mem_ctrl0.dram.pendingWrites::mean    10.744624                       # Number of outstanding writes to NVM (Count)
system.far_mem_ctrl0.dram.pendingWrites::gmean     8.187796                       # Number of outstanding writes to NVM (Count)
system.far_mem_ctrl0.dram.pendingWrites::stdev     7.173765                       # Number of outstanding writes to NVM (Count)
system.far_mem_ctrl0.dram.pendingWrites::1           19      5.11%      5.11% # Number of outstanding writes to NVM (Count)
system.far_mem_ctrl0.dram.pendingWrites::2           19      5.11%     10.22% # Number of outstanding writes to NVM (Count)
system.far_mem_ctrl0.dram.pendingWrites::3           20      5.38%     15.59% # Number of outstanding writes to NVM (Count)
system.far_mem_ctrl0.dram.pendingWrites::4           20      5.38%     20.97% # Number of outstanding writes to NVM (Count)
system.far_mem_ctrl0.dram.pendingWrites::5           20      5.38%     26.34% # Number of outstanding writes to NVM (Count)
system.far_mem_ctrl0.dram.pendingWrites::6           20      5.38%     31.72% # Number of outstanding writes to NVM (Count)
system.far_mem_ctrl0.dram.pendingWrites::7           20      5.38%     37.10% # Number of outstanding writes to NVM (Count)
system.far_mem_ctrl0.dram.pendingWrites::8           20      5.38%     42.47% # Number of outstanding writes to NVM (Count)
system.far_mem_ctrl0.dram.pendingWrites::9           20      5.38%     47.85% # Number of outstanding writes to NVM (Count)
system.far_mem_ctrl0.dram.pendingWrites::10           20      5.38%     53.23% # Number of outstanding writes to NVM (Count)
system.far_mem_ctrl0.dram.pendingWrites::11           20      5.38%     58.60% # Number of outstanding writes to NVM (Count)
system.far_mem_ctrl0.dram.pendingWrites::12           20      5.38%     63.98% # Number of outstanding writes to NVM (Count)
system.far_mem_ctrl0.dram.pendingWrites::13           20      5.38%     69.35% # Number of outstanding writes to NVM (Count)
system.far_mem_ctrl0.dram.pendingWrites::14           20      5.38%     74.73% # Number of outstanding writes to NVM (Count)
system.far_mem_ctrl0.dram.pendingWrites::15           20      5.38%     80.11% # Number of outstanding writes to NVM (Count)
system.far_mem_ctrl0.dram.pendingWrites::16           20      5.38%     85.48% # Number of outstanding writes to NVM (Count)
system.far_mem_ctrl0.dram.pendingWrites::17            6      1.61%     87.10% # Number of outstanding writes to NVM (Count)
system.far_mem_ctrl0.dram.pendingWrites::18            6      1.61%     88.71% # Number of outstanding writes to NVM (Count)
system.far_mem_ctrl0.dram.pendingWrites::19            5      1.34%     90.05% # Number of outstanding writes to NVM (Count)
system.far_mem_ctrl0.dram.pendingWrites::20            5      1.34%     91.40% # Number of outstanding writes to NVM (Count)
system.far_mem_ctrl0.dram.pendingWrites::21            4      1.08%     92.47% # Number of outstanding writes to NVM (Count)
system.far_mem_ctrl0.dram.pendingWrites::22            3      0.81%     93.28% # Number of outstanding writes to NVM (Count)
system.far_mem_ctrl0.dram.pendingWrites::23            2      0.54%     93.82% # Number of outstanding writes to NVM (Count)
system.far_mem_ctrl0.dram.pendingWrites::24            2      0.54%     94.35% # Number of outstanding writes to NVM (Count)
system.far_mem_ctrl0.dram.pendingWrites::25            2      0.54%     94.89% # Number of outstanding writes to NVM (Count)
system.far_mem_ctrl0.dram.pendingWrites::26            2      0.54%     95.43% # Number of outstanding writes to NVM (Count)
system.far_mem_ctrl0.dram.pendingWrites::27            2      0.54%     95.97% # Number of outstanding writes to NVM (Count)
system.far_mem_ctrl0.dram.pendingWrites::28            2      0.54%     96.51% # Number of outstanding writes to NVM (Count)
system.far_mem_ctrl0.dram.pendingWrites::29            2      0.54%     97.04% # Number of outstanding writes to NVM (Count)
system.far_mem_ctrl0.dram.pendingWrites::30            2      0.54%     97.58% # Number of outstanding writes to NVM (Count)
system.far_mem_ctrl0.dram.pendingWrites::31            2      0.54%     98.12% # Number of outstanding writes to NVM (Count)
system.far_mem_ctrl0.dram.pendingWrites::32            2      0.54%     98.66% # Number of outstanding writes to NVM (Count)
system.far_mem_ctrl0.dram.pendingWrites::33            1      0.27%     98.92% # Number of outstanding writes to NVM (Count)
system.far_mem_ctrl0.dram.pendingWrites::34            1      0.27%     99.19% # Number of outstanding writes to NVM (Count)
system.far_mem_ctrl0.dram.pendingWrites::35            1      0.27%     99.46% # Number of outstanding writes to NVM (Count)
system.far_mem_ctrl0.dram.pendingWrites::36            1      0.27%     99.73% # Number of outstanding writes to NVM (Count)
system.far_mem_ctrl0.dram.pendingWrites::37            1      0.27%    100.00% # Number of outstanding writes to NVM (Count)
system.far_mem_ctrl0.dram.pendingWrites::total          372                       # Number of outstanding writes to NVM (Count)
system.far_mem_ctrl0.dram.bytesPerBank::samples         3288                       # Bytes read within a bank before loading new bank (Byte)
system.far_mem_ctrl0.dram.bytesPerBank::mean           64                       # Bytes read within a bank before loading new bank (Byte)
system.far_mem_ctrl0.dram.bytesPerBank::gmean    64.000000                       # Bytes read within a bank before loading new bank (Byte)
system.far_mem_ctrl0.dram.bytesPerBank::64         3288    100.00%    100.00% # Bytes read within a bank before loading new bank (Byte)
system.far_mem_ctrl0.dram.bytesPerBank::total         3288                       # Bytes read within a bank before loading new bank (Byte)
system.far_mem_ctrl0.dram.power_state.pwrStateResidencyTicks::UNDEFINED    100078000                       # Cumulative time (in ticks) in various power states (Tick)
system.far_mem_ctrl0.power_state.pwrStateResidencyTicks::UNDEFINED    100078000                       # Cumulative time (in ticks) in various power states (Tick)
system.far_mem_ctrl1.avgPriority_writebacks::samples      3135.00                       # Average QoS priority value for accepted requests (Count)
system.far_mem_ctrl1.priorityMinLatency  0.000000317492                       # per QoS priority minimum request to response latency (Second)
system.far_mem_ctrl1.priorityMaxLatency  0.000069655490                       # per QoS priority maximum request to response latency (Second)
system.far_mem_ctrl1.numReadWriteTurnArounds           16                       # Number of turnarounds from READ to WRITE (Count)
system.far_mem_ctrl1.numWriteReadTurnArounds           16                       # Number of turnarounds from WRITE to READ (Count)
system.far_mem_ctrl1.numStayReadState            8825                       # Number of times bus staying in READ state (Count)
system.far_mem_ctrl1.numStayWriteState            297                       # Number of times bus staying in WRITE state (Count)
system.far_mem_ctrl1.readReqs                    2717                       # Number of read requests accepted (Count)
system.far_mem_ctrl1.writeReqs                    418                       # Number of write requests accepted (Count)
system.far_mem_ctrl1.readBursts                  2717                       # Number of controller read bursts, including those serviced by the write queue (Count)
system.far_mem_ctrl1.writeBursts                  418                       # Number of controller write bursts, including those merged in the write queue (Count)
system.far_mem_ctrl1.servicedByWrQ                  0                       # Number of controller read bursts serviced by the write queue (Count)
system.far_mem_ctrl1.mergedWrBursts                 0                       # Number of controller write bursts merged with an existing one (Count)
system.far_mem_ctrl1.neitherReadNorWriteReqs            0                       # Number of requests that are neither read nor write (Count)
system.far_mem_ctrl1.avgRdQLen                   9.01                       # Average read queue length when enqueuing ((Count/Tick))
system.far_mem_ctrl1.avgWrQLen                  49.98                       # Average write queue length when enqueuing ((Count/Tick))
system.far_mem_ctrl1.numRdRetry                     0                       # Number of times read queue was full causing retry (Count)
system.far_mem_ctrl1.numWrRetry                     0                       # Number of times write queue was full causing retry (Count)
system.far_mem_ctrl1.readPktSize::0                 0                       # Read request sizes (log2) (Count)
system.far_mem_ctrl1.readPktSize::1                 0                       # Read request sizes (log2) (Count)
system.far_mem_ctrl1.readPktSize::2                 0                       # Read request sizes (log2) (Count)
system.far_mem_ctrl1.readPktSize::3                 0                       # Read request sizes (log2) (Count)
system.far_mem_ctrl1.readPktSize::4                 0                       # Read request sizes (log2) (Count)
system.far_mem_ctrl1.readPktSize::5                 0                       # Read request sizes (log2) (Count)
system.far_mem_ctrl1.readPktSize::6              2717                       # Read request sizes (log2) (Count)
system.far_mem_ctrl1.writePktSize::0                0                       # Write request sizes (log2) (Count)
system.far_mem_ctrl1.writePktSize::1                0                       # Write request sizes (log2) (Count)
system.far_mem_ctrl1.writePktSize::2                0                       # Write request sizes (log2) (Count)
system.far_mem_ctrl1.writePktSize::3                0                       # Write request sizes (log2) (Count)
system.far_mem_ctrl1.writePktSize::4                0                       # Write request sizes (log2) (Count)
system.far_mem_ctrl1.writePktSize::5                0                       # Write request sizes (log2) (Count)
system.far_mem_ctrl1.writePktSize::6              418                       # Write request sizes (log2) (Count)
system.far_mem_ctrl1.rdQLenPdf::0                  52                       # What read queue length does an incoming req see (Count)
system.far_mem_ctrl1.rdQLenPdf::1                 120                       # What read queue length does an incoming req see (Count)
system.far_mem_ctrl1.rdQLenPdf::2                 211                       # What read queue length does an incoming req see (Count)
system.far_mem_ctrl1.rdQLenPdf::3                 276                       # What read queue length does an incoming req see (Count)
system.far_mem_ctrl1.rdQLenPdf::4                 305                       # What read queue length does an incoming req see (Count)
system.far_mem_ctrl1.rdQLenPdf::5                 305                       # What read queue length does an incoming req see (Count)
system.far_mem_ctrl1.rdQLenPdf::6                 295                       # What read queue length does an incoming req see (Count)
system.far_mem_ctrl1.rdQLenPdf::7                 249                       # What read queue length does an incoming req see (Count)
system.far_mem_ctrl1.rdQLenPdf::8                 196                       # What read queue length does an incoming req see (Count)
system.far_mem_ctrl1.rdQLenPdf::9                 139                       # What read queue length does an incoming req see (Count)
system.far_mem_ctrl1.rdQLenPdf::10                114                       # What read queue length does an incoming req see (Count)
system.far_mem_ctrl1.rdQLenPdf::11                 94                       # What read queue length does an incoming req see (Count)
system.far_mem_ctrl1.rdQLenPdf::12                 81                       # What read queue length does an incoming req see (Count)
system.far_mem_ctrl1.rdQLenPdf::13                 69                       # What read queue length does an incoming req see (Count)
system.far_mem_ctrl1.rdQLenPdf::14                 50                       # What read queue length does an incoming req see (Count)
system.far_mem_ctrl1.rdQLenPdf::15                 35                       # What read queue length does an incoming req see (Count)
system.far_mem_ctrl1.rdQLenPdf::16                 28                       # What read queue length does an incoming req see (Count)
system.far_mem_ctrl1.rdQLenPdf::17                 23                       # What read queue length does an incoming req see (Count)
system.far_mem_ctrl1.rdQLenPdf::18                 19                       # What read queue length does an incoming req see (Count)
system.far_mem_ctrl1.rdQLenPdf::19                 13                       # What read queue length does an incoming req see (Count)
system.far_mem_ctrl1.rdQLenPdf::20                  7                       # What read queue length does an incoming req see (Count)
system.far_mem_ctrl1.rdQLenPdf::21                  6                       # What read queue length does an incoming req see (Count)
system.far_mem_ctrl1.rdQLenPdf::22                  4                       # What read queue length does an incoming req see (Count)
system.far_mem_ctrl1.rdQLenPdf::23                  5                       # What read queue length does an incoming req see (Count)
system.far_mem_ctrl1.rdQLenPdf::24                  7                       # What read queue length does an incoming req see (Count)
system.far_mem_ctrl1.rdQLenPdf::25                  4                       # What read queue length does an incoming req see (Count)
system.far_mem_ctrl1.rdQLenPdf::26                  3                       # What read queue length does an incoming req see (Count)
system.far_mem_ctrl1.rdQLenPdf::27                  3                       # What read queue length does an incoming req see (Count)
system.far_mem_ctrl1.rdQLenPdf::28                  1                       # What read queue length does an incoming req see (Count)
system.far_mem_ctrl1.rdQLenPdf::29                  2                       # What read queue length does an incoming req see (Count)
system.far_mem_ctrl1.rdQLenPdf::30                  1                       # What read queue length does an incoming req see (Count)
system.far_mem_ctrl1.rdQLenPdf::31                  0                       # What read queue length does an incoming req see (Count)
system.far_mem_ctrl1.rdQLenPdf::32                  0                       # What read queue length does an incoming req see (Count)
system.far_mem_ctrl1.rdQLenPdf::33                  0                       # What read queue length does an incoming req see (Count)
system.far_mem_ctrl1.rdQLenPdf::34                  0                       # What read queue length does an incoming req see (Count)
system.far_mem_ctrl1.rdQLenPdf::35                  0                       # What read queue length does an incoming req see (Count)
system.far_mem_ctrl1.rdQLenPdf::36                  0                       # What read queue length does an incoming req see (Count)
system.far_mem_ctrl1.rdQLenPdf::37                  0                       # What read queue length does an incoming req see (Count)
system.far_mem_ctrl1.rdQLenPdf::38                  0                       # What read queue length does an incoming req see (Count)
system.far_mem_ctrl1.rdQLenPdf::39                  0                       # What read queue length does an incoming req see (Count)
system.far_mem_ctrl1.rdQLenPdf::40                  0                       # What read queue length does an incoming req see (Count)
system.far_mem_ctrl1.rdQLenPdf::41                  0                       # What read queue length does an incoming req see (Count)
system.far_mem_ctrl1.rdQLenPdf::42                  0                       # What read queue length does an incoming req see (Count)
system.far_mem_ctrl1.rdQLenPdf::43                  0                       # What read queue length does an incoming req see (Count)
system.far_mem_ctrl1.rdQLenPdf::44                  0                       # What read queue length does an incoming req see (Count)
system.far_mem_ctrl1.rdQLenPdf::45                  0                       # What read queue length does an incoming req see (Count)
system.far_mem_ctrl1.rdQLenPdf::46                  0                       # What read queue length does an incoming req see (Count)
system.far_mem_ctrl1.rdQLenPdf::47                  0                       # What read queue length does an incoming req see (Count)
system.far_mem_ctrl1.rdQLenPdf::48                  0                       # What read queue length does an incoming req see (Count)
system.far_mem_ctrl1.rdQLenPdf::49                  0                       # What read queue length does an incoming req see (Count)
system.far_mem_ctrl1.rdQLenPdf::50                  0                       # What read queue length does an incoming req see (Count)
system.far_mem_ctrl1.rdQLenPdf::51                  0                       # What read queue length does an incoming req see (Count)
system.far_mem_ctrl1.rdQLenPdf::52                  0                       # What read queue length does an incoming req see (Count)
system.far_mem_ctrl1.rdQLenPdf::53                  0                       # What read queue length does an incoming req see (Count)
system.far_mem_ctrl1.rdQLenPdf::54                  0                       # What read queue length does an incoming req see (Count)
system.far_mem_ctrl1.rdQLenPdf::55                  0                       # What read queue length does an incoming req see (Count)
system.far_mem_ctrl1.rdQLenPdf::56                  0                       # What read queue length does an incoming req see (Count)
system.far_mem_ctrl1.rdQLenPdf::57                  0                       # What read queue length does an incoming req see (Count)
system.far_mem_ctrl1.rdQLenPdf::58                  0                       # What read queue length does an incoming req see (Count)
system.far_mem_ctrl1.rdQLenPdf::59                  0                       # What read queue length does an incoming req see (Count)
system.far_mem_ctrl1.rdQLenPdf::60                  0                       # What read queue length does an incoming req see (Count)
system.far_mem_ctrl1.rdQLenPdf::61                  0                       # What read queue length does an incoming req see (Count)
system.far_mem_ctrl1.rdQLenPdf::62                  0                       # What read queue length does an incoming req see (Count)
system.far_mem_ctrl1.rdQLenPdf::63                  0                       # What read queue length does an incoming req see (Count)
system.far_mem_ctrl1.rdQLenPdf::64                  0                       # What read queue length does an incoming req see (Count)
system.far_mem_ctrl1.rdQLenPdf::65                  0                       # What read queue length does an incoming req see (Count)
system.far_mem_ctrl1.rdQLenPdf::66                  0                       # What read queue length does an incoming req see (Count)
system.far_mem_ctrl1.rdQLenPdf::67                  0                       # What read queue length does an incoming req see (Count)
system.far_mem_ctrl1.rdQLenPdf::68                  0                       # What read queue length does an incoming req see (Count)
system.far_mem_ctrl1.rdQLenPdf::69                  0                       # What read queue length does an incoming req see (Count)
system.far_mem_ctrl1.rdQLenPdf::70                  0                       # What read queue length does an incoming req see (Count)
system.far_mem_ctrl1.rdQLenPdf::71                  0                       # What read queue length does an incoming req see (Count)
system.far_mem_ctrl1.rdQLenPdf::72                  0                       # What read queue length does an incoming req see (Count)
system.far_mem_ctrl1.rdQLenPdf::73                  0                       # What read queue length does an incoming req see (Count)
system.far_mem_ctrl1.rdQLenPdf::74                  0                       # What read queue length does an incoming req see (Count)
system.far_mem_ctrl1.rdQLenPdf::75                  0                       # What read queue length does an incoming req see (Count)
system.far_mem_ctrl1.rdQLenPdf::76                  0                       # What read queue length does an incoming req see (Count)
system.far_mem_ctrl1.rdQLenPdf::77                  0                       # What read queue length does an incoming req see (Count)
system.far_mem_ctrl1.rdQLenPdf::78                  0                       # What read queue length does an incoming req see (Count)
system.far_mem_ctrl1.rdQLenPdf::79                  0                       # What read queue length does an incoming req see (Count)
system.far_mem_ctrl1.rdQLenPdf::80                  0                       # What read queue length does an incoming req see (Count)
system.far_mem_ctrl1.rdQLenPdf::81                  0                       # What read queue length does an incoming req see (Count)
system.far_mem_ctrl1.rdQLenPdf::82                  0                       # What read queue length does an incoming req see (Count)
[...]
system.membus.pktSize_system.generators08.port::system.mem_ctrl1.port        11584                       # Cumulative packet size per connected requestor and responder (Byte)
system.membus.pktSize_system.generators08.port::total        24000                       # Cumulative packet size per connected requestor and responder (Byte)
system.membus.pktSize_system.generators09.port::system.mem_ctrl0.port        11264                       # Cumulative packet size per connected requestor and responder (Byte)
system.membus.pktSize_system.generators09.port::system.mem_ctrl1.port        11648                       # Cumulative packet size per connected requestor and responder (Byte)
system.membus.pktSize_system.generators09.port::total        22912                       # Cumulative packet size per connected requestor and responder (Byte)
system.membus.pktSize_system.generators10.port::system.mem_ctrl0.port        10112                       # Cumulative packet size per connected requestor and responder (Byte)
system.membus.pktSize_system.generators10.port::system.mem_ctrl1.port        12480                       # Cumulative packet size per connected requestor and responder (Byte)
system.membus.pktSize_system.generators10.port::total        22592                       # Cumulative packet size per connected requestor and responder (Byte)
system.membus.pktSize_system.generators11.port::system.mem_ctrl0.port        12032                       # Cumulative packet size per connected requestor and responder (Byte)
system.membus.pktSize_system.generators11.port::system.mem_ctrl1.port        11712                       # Cumulative packet size per connected requestor and responder (Byte)
system.membus.pktSize_system.generators11.port::total        23744                       # Cumulative packet size per connected requestor and responder (Byte)
system.membus.pktSize_system.generators12.port::system.mem_ctrl0.port        13952                       # Cumulative packet size per connected requestor and responder (Byte)
system.membus.pktSize_system.generators12.port::system.mem_ctrl1.port        10880                       # Cumulative packet size per connected requestor and responder (Byte)
system.membus.pktSize_system.generators12.port::total        24832                       # Cumulative packet size per connected requestor and responder (Byte)
system.membus.pktSize_system.generators13.port::system.mem_ctrl0.port        12608                       # Cumulative packet size per connected requestor and responder (Byte)
system.membus.pktSize_system.generators13.port::system.mem_ctrl1.port        11648                       # Cumulative packet size per connected requestor and responder (Byte)
system.membus.pktSize_system.generators13.port::total        24256                       # Cumulative packet size per connected requestor and responder (Byte)
system.membus.pktSize_system.generators14.port::system.mem_ctrl0.port        11904                       # Cumulative packet size per connected requestor and responder (Byte)
system.membus.pktSize_system.generators14.port::system.mem_ctrl1.port        10880                       # Cumulative packet size per connected requestor and responder (Byte)
system.membus.pktSize_system.generators14.port::total        22784                       # Cumulative packet size per connected requestor and responder (Byte)
system.membus.pktSize_system.generators15.port::system.mem_ctrl0.port        11520                       # Cumulative packet size per connected requestor and responder (Byte)
system.membus.pktSize_system.generators15.port::system.mem_ctrl1.port        11840                       # Cumulative packet size per connected requestor and responder (Byte)
system.membus.pktSize_system.generators15.port::total        23360                       # Cumulative packet size per connected requestor and responder (Byte)
system.membus.pktSize_system.generators16.port::system.mem_ctrl0.port        12416                       # Cumulative packet size per connected requestor and responder (Byte)
system.membus.pktSize_system.generators16.port::system.mem_ctrl1.port        11840                       # Cumulative packet size per connected requestor and responder (Byte)
system.membus.pktSize_system.generators16.port::total        24256                       # Cumulative packet size per connected requestor and responder (Byte)
system.membus.pktSize_system.generators17.port::system.mem_ctrl0.port        12352                       # Cumulative packet size per connected requestor and responder (Byte)
system.membus.pktSize_system.generators17.port::system.mem_ctrl1.port        11968                       # Cumulative packet size per connected requestor and responder (Byte)
system.membus.pktSize_system.generators17.port::total        24320                       # Cumulative packet size per connected requestor and responder (Byte)
system.membus.pktSize_system.generators18.port::system.mem_ctrl0.port        10880                       # Cumulative packet size per connected requestor and responder (Byte)
system.membus.pktSize_system.generators18.port::system.mem_ctrl1.port        12160                       # Cumulative packet size per connected requestor and responder (Byte)
system.membus.pktSize_system.generators18.port::total        23040                       # Cumulative packet size per connected requestor and responder (Byte)
system.membus.pktSize_system.generators19.port::system.mem_ctrl0.port        11136                       # Cumulative packet size per connected requestor and responder (Byte)
system.membus.pktSize_system.generators19.port::system.mem_ctrl1.port        11456                       # Cumulative packet size per connected requestor and responder (Byte)
system.membus.pktSize_system.generators19.port::total        22592                       # Cumulative packet size per connected requestor and responder (Byte)
system.membus.pktSize_system.generators20.port::system.mem_ctrl0.port        10560                       # Cumulative packet size per connected requestor and responder (Byte)
system.membus.pktSize_system.generators20.port::system.mem_ctrl1.port        11648                       # Cumulative packet size per connected requestor and responder (Byte)
system.membus.pktSize_system.generators20.port::total        22208                       # Cumulative packet size per connected requestor and responder (Byte)
system.membus.pktSize_system.generators21.port::system.mem_ctrl0.port         9728                       # Cumulative packet size per connected requestor and responder (Byte)
system.membus.pktSize_system.generators21.port::system.mem_ctrl1.port        11392                       # Cumulative packet size per connected requestor and responder (Byte)
system.membus.pktSize_system.generators21.port::total        21120                       # Cumulative packet size per connected requestor and responder (Byte)
system.membus.pktSize_system.generators22.port::system.mem_ctrl0.port        11776                       # Cumulative packet size per connected requestor and responder (Byte)
system.membus.pktSize_system.generators22.port::system.mem_ctrl1.port        11840                       # Cumulative packet size per connected requestor and responder (Byte)
system.membus.pktSize_system.generators22.port::total        23616                       # Cumulative packet size per connected requestor and responder (Byte)
system.membus.pktSize_system.generators23.port::system.mem_ctrl0.port        12672                       # Cumulative packet size per connected requestor and responder (Byte)
system.membus.pktSize_system.generators23.port::system.mem_ctrl1.port        11456                       # Cumulative packet size per connected requestor and responder (Byte)
system.membus.pktSize_system.generators23.port::total        24128                       # Cumulative packet size per connected requestor and responder (Byte)
system.membus.pktSize_system.generators24.port::system.mem_ctrl0.port        11392                       # Cumulative packet size per connected requestor and responder (Byte)
system.membus.pktSize_system.generators24.port::system.mem_ctrl1.port        11840                       # Cumulative packet size per connected requestor and responder (Byte)
system.membus.pktSize_system.generators24.port::total        23232                       # Cumulative packet size per connected requestor and responder (Byte)
system.membus.pktSize_system.generators25.port::system.mem_ctrl0.port        11200                       # Cumulative packet size per connected requestor and responder (Byte)
system.membus.pktSize_system.generators25.port::system.mem_ctrl1.port        12032                       # Cumulative packet size per connected requestor and responder (Byte)
system.membus.pktSize_system.generators25.port::total        23232                       # Cumulative packet size per connected requestor and responder (Byte)
system.membus.pktSize_system.generators26.port::system.mem_ctrl0.port        12096                       # Cumulative packet size per connected requestor and responder (Byte)
system.membus.pktSize_system.generators26.port::system.mem_ctrl1.port        11968                       # Cumulative packet size per connected requestor and responder (Byte)
system.membus.pktSize_system.generators26.port::total        24064                       # Cumulative packet size per connected requestor and responder (Byte)
system.membus.pktSize_system.generators27.port::system.mem_ctrl0.port        12928                       # Cumulative packet size per connected requestor and responder (Byte)
system.membus.pktSize_system.generators27.port::system.mem_ctrl1.port        12480                       # Cumulative packet size per connected requestor and responder (Byte)
system.membus.pktSize_system.generators27.port::total        25408                       # Cumulative packet size per connected requestor and responder (Byte)
system.membus.pktSize_system.generators28.port::system.mem_ctrl0.port        12736                       # Cumulative packet size per connected requestor and responder (Byte)
system.membus.pktSize_system.generators28.port::system.mem_ctrl1.port        11648                       # Cumulative packet size per connected requestor and responder (Byte)
system.membus.pktSize_system.generators28.port::total        24384                       # Cumulative packet size per connected requestor and responder (Byte)
system.membus.pktSize_system.generators29.port::system.mem_ctrl0.port        11008                       # Cumulative packet size per connected requestor and responder (Byte)
system.membus.pktSize_system.generators29.port::system.mem_ctrl1.port        11392                       # Cumulative packet size per connected requestor and responder (Byte)
system.membus.pktSize_system.generators29.port::total        22400                       # Cumulative packet size per connected requestor and responder (Byte)
system.membus.pktSize_system.generators30.port::system.mem_ctrl0.port        11200                       # Cumulative packet size per connected requestor and responder (Byte)
system.membus.pktSize_system.generators30.port::system.mem_ctrl1.port        10944                       # Cumulative packet size per connected requestor and responder (Byte)
system.membus.pktSize_system.generators30.port::total        22144                       # Cumulative packet size per connected requestor and responder (Byte)
system.membus.pktSize_system.generators31.port::system.mem_ctrl0.port        11392                       # Cumulative packet size per connected requestor and responder (Byte)
system.membus.pktSize_system.generators31.port::system.mem_ctrl1.port        11264                       # Cumulative packet size per connected requestor and responder (Byte)
system.membus.pktSize_system.generators31.port::total        22656                       # Cumulative packet size per connected requestor and responder (Byte)
system.membus.pktSize::total                   748224                       # Cumulative packet size per connected requestor and responder (Byte)
system.membus.power_state.pwrStateResidencyTicks::UNDEFINED    100078000                       # Cumulative time (in ticks) in various power states (Tick)
system.membus.reqLayer0.occupancy             2511332                       # Layer occupancy (ticks) (Tick)
system.membus.reqLayer0.utilization               0.0                       # Layer utilization (Ratio)
system.membus.reqLayer1.occupancy             3249304                       # Layer occupancy (ticks) (Tick)
system.membus.reqLayer1.utilization               0.0                       # Layer utilization (Ratio)
system.membus.respLayer0.occupancy             115737                       # Layer occupancy (ticks) (Tick)
system.membus.respLayer0.utilization              0.0                       # Layer utilization (Ratio)
system.membus.respLayer1.occupancy             124014                       # Layer occupancy (ticks) (Tick)
system.membus.respLayer1.utilization              0.0                       # Layer utilization (Ratio)
system.membus.respLayer10.occupancy            117439                       # Layer occupancy (ticks) (Tick)
system.membus.respLayer10.utilization             0.0                       # Layer utilization (Ratio)
system.membus.respLayer11.occupancy            125717                       # Layer occupancy (ticks) (Tick)
system.membus.respLayer11.utilization             0.0                       # Layer utilization (Ratio)
system.membus.respLayer12.occupancy            127135                       # Layer occupancy (ticks) (Tick)
system.membus.respLayer12.utilization             0.0                       # Layer utilization (Ratio)
system.membus.respLayer13.occupancy            124230                       # Layer occupancy (ticks) (Tick)
system.membus.respLayer13.utilization             0.0                       # Layer utilization (Ratio)
system.membus.respLayer14.occupancy            118976                       # Layer occupancy (ticks) (Tick)
system.membus.respLayer14.utilization             0.0                       # Layer utilization (Ratio)
system.membus.respLayer15.occupancy            120078                       # Layer occupancy (ticks) (Tick)
system.membus.respLayer15.utilization             0.0                       # Layer utilization (Ratio)
system.membus.respLayer16.occupancy            124038                       # Layer occupancy (ticks) (Tick)
system.membus.respLayer16.utilization             0.0                       # Layer utilization (Ratio)
system.membus.respLayer17.occupancy            127276                       # Layer occupancy (ticks) (Tick)
system.membus.respLayer17.utilization             0.0                       # Layer utilization (Ratio)
system.membus.respLayer18.occupancy            121087                       # Layer occupancy (ticks) (Tick)
system.membus.respLayer18.utilization             0.0                       # Layer utilization (Ratio)
system.membus.respLayer19.occupancy            116410                       # Layer occupancy (ticks) (Tick)
system.membus.respLayer19.utilization             0.0                       # Layer utilization (Ratio)
system.membus.respLayer2.occupancy             119007                       # Layer occupancy (ticks) (Tick)
system.membus.respLayer2.utilization              0.0                       # Layer utilization (Ratio)
system.membus.respLayer20.occupancy            118145                       # Layer occupancy (ticks) (Tick)
system.membus.respLayer20.utilization             0.0                       # Layer utilization (Ratio)
system.membus.respLayer21.occupancy            109575                       # Layer occupancy (ticks) (Tick)
system.membus.respLayer21.utilization             0.0                       # Layer utilization (Ratio)
system.membus.respLayer22.occupancy            123473                       # Layer occupancy (ticks) (Tick)
system.membus.respLayer22.utilization             0.0                       # Layer utilization (Ratio)
system.membus.respLayer23.occupancy            131062                       # Layer occupancy (ticks) (Tick)
system.membus.respLayer23.utilization             0.0                       # Layer utilization (Ratio)
system.membus.respLayer24.occupancy            123131                       # Layer occupancy (ticks) (Tick)
system.membus.respLayer24.utilization             0.0                       # Layer utilization (Ratio)
system.membus.respLayer25.occupancy            123465                       # Layer occupancy (ticks) (Tick)
system.membus.respLayer25.utilization             0.0                       # Layer utilization (Ratio)
system.membus.respLayer26.occupancy            129265                       # Layer occupancy (ticks) (Tick)
system.membus.respLayer26.utilization             0.0                       # Layer utilization (Ratio)
system.membus.respLayer27.occupancy            128698                       # Layer occupancy (ticks) (Tick)
system.membus.respLayer27.utilization             0.0                       # Layer utilization (Ratio)
system.membus.respLayer28.occupancy            132772                       # Layer occupancy (ticks) (Tick)
system.membus.respLayer28.utilization             0.0                       # Layer utilization (Ratio)
system.membus.respLayer29.occupancy            119691                       # Layer occupancy (ticks) (Tick)
system.membus.respLayer29.utilization             0.0                       # Layer utilization (Ratio)
system.membus.respLayer3.occupancy             113549                       # Layer occupancy (ticks) (Tick)
system.membus.respLayer3.utilization              0.0                       # Layer utilization (Ratio)
system.membus.respLayer30.occupancy            113058                       # Layer occupancy (ticks) (Tick)
system.membus.respLayer30.utilization             0.0                       # Layer utilization (Ratio)
system.membus.respLayer31.occupancy            120095                       # Layer occupancy (ticks) (Tick)
system.membus.respLayer31.utilization             0.0                       # Layer utilization (Ratio)
system.membus.respLayer4.occupancy             110133                       # Layer occupancy (ticks) (Tick)
system.membus.respLayer4.utilization              0.0                       # Layer utilization (Ratio)
system.membus.respLayer5.occupancy             129968                       # Layer occupancy (ticks) (Tick)
system.membus.respLayer5.utilization              0.0                       # Layer utilization (Ratio)
system.membus.respLayer6.occupancy             122367                       # Layer occupancy (ticks) (Tick)
system.membus.respLayer6.utilization              0.0                       # Layer utilization (Ratio)
system.membus.respLayer7.occupancy             123416                       # Layer occupancy (ticks) (Tick)
system.membus.respLayer7.utilization              0.0                       # Layer utilization (Ratio)
system.membus.respLayer8.occupancy             123630                       # Layer occupancy (ticks) (Tick)
system.membus.respLayer8.utilization              0.0                       # Layer utilization (Ratio)
system.membus.respLayer9.occupancy             123564                       # Layer occupancy (ticks) (Tick)
system.membus.respLayer9.utilization              0.0                       # Layer utilization (Ratio)
system.workload.inst.arm                            0                       # number of arm instructions executed (Count)
system.workload.inst.quiesce                        0                       # number of quiesce instructions executed (Count)

---------- End Simulation Statistics   ----------
