
---------- Begin Simulation Statistics ----------
simSeconds                                   0.001000                       # Number of seconds simulated (Second)
simTicks                                   1000261808                       # Number of ticks simulated (Tick)
finalTick                                  1000261808                       # Number of ticks from beginning of simulation (restored from checkpoints and never reset) (Tick)
simFreq                                  1000000000000                       # The number of ticks per simulated second ((Tick/Second))
hostSeconds                                      5.20                       # Real time elapsed on the host (Second)
hostTickRate                                192338530                       # The number of ticks simulated per host second (ticks/s) ((Tick/Second))
hostMemory                                    8607540                       # Number of bytes of host memory used (Byte)
system.clk_domain.clock                           200                       # Clock period in ticks (Tick)
system.clk_domain.voltage_domain.voltage            1                       # Voltage in Volts (Volt)
system.far_mem_ctrl0.avgPriority_writebacks::samples     29694.00                       # Average QoS priority value for accepted requests (Count)
system.far_mem_ctrl0.priorityMinLatency  0.000001130740                       # per QoS priority minimum request to response latency (Second)
system.far_mem_ctrl0.priorityMaxLatency  0.000011049092                       # per QoS priority maximum request to response latency (Second)
system.far_mem_ctrl0.numReadWriteTurnArounds          588                       # Number of turnarounds from READ to WRITE (Count)
system.far_mem_ctrl0.numWriteReadTurnArounds          589                       # Number of turnarounds from WRITE to READ (Count)
system.far_mem_ctrl0.numStayReadState           22513                       # Number of times bus staying in READ state (Count)
system.far_mem_ctrl0.numStayWriteState          51991                       # Number of times bus staying in WRITE state (Count)
system.far_mem_ctrl0.readReqs                       0                       # Number of read requests accepted (Count)
system.far_mem_ctrl0.writeReqs                  29694                       # Number of write requests accepted (Count)
system.far_mem_ctrl0.readBursts                     0                       # Number of controller read bursts, including those serviced by the write queue (Count)
system.far_mem_ctrl0.writeBursts                29694                       # Number of controller write bursts, including those merged in the write queue (Count)
system.far_mem_ctrl0.servicedByWrQ                  0                       # Number of controller read bursts serviced by the write queue (Count)
system.far_mem_ctrl0.mergedWrBursts                 0                       # Number of controller write bursts merged with an existing one (Count)
system.far_mem_ctrl0.neitherReadNorWriteReqs            0                       # Number of requests that are neither read nor write (Count)
system.far_mem_ctrl0.avgRdQLen                   0.00                       # Average read queue length when enqueuing ((Count/Tick))
system.far_mem_ctrl0.avgWrQLen                  80.37                       # Average write queue length when enqueuing ((Count/Tick))
system.far_mem_ctrl0.numRdRetry                     0                       # Number of times read queue was full causing retry (Count)
system.far_mem_ctrl0.numWrRetry                  5462                       # Number of times write queue was full causing retry (Count)
system.far_mem_ctrl0.readPktSize::0                 0                       # Read request sizes (log2) (Count)
system.far_mem_ctrl0.readPktSize::1                 0                       # Read request sizes (log2) (Count)
system.far_mem_ctrl0.readPktSize::2                 0                       # Read request sizes (log2) (Count)
system.far_mem_ctrl0.readPktSize::3                 0                       # Read request sizes (log2) (Count)
system.far_mem_ctrl0.readPktSize::4                 0                       # Read request sizes (log2) (Count)
system.far_mem_ctrl0.readPktSize::5                 0                       # Read request sizes (log2) (Count)
system.far_mem_ctrl0.readPktSize::6                 0                       # Read request sizes (log2) (Count)
system.far_mem_ctrl0.writePktSize::0                0                       # Write request sizes (log2) (Count)
system.far_mem_ctrl0.writePktSize::1                0                       # Write request sizes (log2) (Count)
system.far_mem_ctrl0.writePktSize::2                0                       # Write request sizes (log2) (Count)
system.far_mem_ctrl0.writePktSize::3                0                       # Write request sizes (log2) (Count)
system.far_mem_ctrl0.writePktSize::4                0                       # Write request sizes (log2) (Count)
system.far_mem_ctrl0.writePktSize::5                0                       # Write request sizes (log2) (Count)
system.far_mem_ctrl0.writePktSize::6            29694                       # Write request sizes (log2) (Count)
system.far_mem_ctrl0.rdQLenPdf::0                   0                       # What read queue length does an incoming req see (Count)
system.far_mem_ctrl0.rdQLenPdf::1                   0                       # What read queue length does an incoming req see (Count)
system.far_mem_ctrl0.rdQLenPdf::2                   0                       # What read queue length does an incoming req see (Count)
system.far_mem_ctrl0.rdQLenPdf::3                   0                       # What read queue length does an incoming req see (Count)
system.far_mem_ctrl0.rdQLenPdf::4                   0                       # What read queue length does an incoming req see (Count)
system.far_mem_ctrl0.rdQLenPdf::5                   0                       # What read queue length does an incoming req see (Count)
system.far_mem_ctrl0.rdQLenPdf::6                   0                       # What read queue length does an incoming req see (Count)
system.far_mem_ctrl0.rdQLenPdf::7                   0                       # What read queue length does an incoming req see (Count)
system.far_mem_ctrl0.rdQLenPdf::8                   0                       # What read queue length does an incoming req see (Count)
system.far_mem_ctrl0.rdQLenPdf::9                   0                       # What read queue length does an incoming req see (Count)
system.far_mem_ctrl0.rdQLenPdf::10                  0                       # What read queue length does an incoming req see (Count)
system.far_mem_ctrl0.rdQLenPdf::11                  0                       # What read queue length does an incoming req see (Count)
system.far_mem_ctrl0.rdQLenPdf::12                  0                       # What read queue length does an incoming req see (Count)
system.far_mem_ctrl0.rdQLenPdf::13                  0                       # What read queue length does an incoming req see (Count)
system.far_mem_ctrl0.rdQLenPdf::14                  0                       # What read queue length does an incoming req see (Count)
system.far_mem_ctrl0.rdQLenPdf::15                  0                       # What read queue length does an incoming req see (Count)
system.far_mem_ctrl0.rdQLenPdf::16                  0                       # What read queue length does an incoming req see (Count)
system.far_mem_ctrl0.rdQLenPdf::17                  0                       # What read queue length does an incoming req see (Count)
system.far_mem_ctrl0.rdQLenPdf::18                  0                       # What read queue length does an incoming req see (Count)
system.far_mem_ctrl0.rdQLenPdf::19                  0                       # What read queue length does an incoming req see (Count)
system.far_mem_ctrl0.rdQLenPdf::20                  0                       # What read queue length does an incoming req see (Count)
system.far_mem_ctrl0.rdQLenPdf::21                  0                       # What read queue length does an incoming req see (Count)
system.far_mem_ctrl0.rdQLenPdf::22                  0                       # What read queue length does an incoming req see (Count)
system.far_mem_ctrl0.rdQLenPdf::23                  0                       # What read queue length does an incoming req see (Count)
system.far_mem_ctrl0.rdQLenPdf::24                  0                       # What read queue length does an incoming req see (Count)
system.far_mem_ctrl0.rdQLenPdf::25                  0                       # What read queue length does an incoming req see (Count)
system.far_mem_ctrl0.rdQLenPdf::26                  0                       # What read queue length does an incoming req see (Count)
system.far_mem_ctrl0.rdQLenPdf::27                  0                       # What read queue length does an incoming req see (Count)
system.far_mem_ctrl0.rdQLenPdf::28                  0                       # What read queue length does an incoming req see (Count)
system.far_mem_ctrl0.rdQLenPdf::29                  0                       # What read queue length does an incoming req see (Count)
system.far_mem_ctrl0.rdQLenPdf::30                  0                       # What read queue length does an incoming req see (Count)
system.far_mem_ctrl0.rdQLenPdf::31                  0                       # What read queue length does an incoming req see (Count)
system.far_mem_ctrl0.rdQLenPdf::32                  0                       # What read queue length does an incoming req see (Count)
system.far_mem_ctrl0.rdQLenPdf::33                  0                       # What read queue length does an incoming req see (Count)
system.far_mem_ctrl0.rdQLenPdf::34                  0                       # What read queue length does an incoming req see (Count)
system.far_mem_ctrl0.rdQLenPdf::35                  0                       # What read queue length does an incoming req see (Count)
system.far_mem_ctrl0.rdQLenPdf::36                  0                       # What read queue length does an incoming req see (Count)
system.far_mem_ctrl0.rdQLenPdf::37                  0                       # What read queue length does an incoming req see (Count)
system.far_mem_ctrl0.rdQLenPdf::38                  0                       # What read queue length does an incoming req see (Count)
system.far_mem_ctrl0.rdQLenPdf::39                  0                       # What read queue length does an incoming req see (Count)
system.far_mem_ctrl0.rdQLenPdf::40                  0                       # What read queue length does an incoming req see (Count)
system.far_mem_ctrl0.rdQLenPdf::41                  0                       # What read queue length does an incoming req see (Count)
system.far_mem_ctrl0.rdQLenPdf::42                  0                       # What read queue length does an incoming req see (Count)
system.far_mem_ctrl0.rdQLenPdf::43                  0                       # What read queue length does an incoming req see (Count)
system.far_mem_ctrl0.rdQLenPdf::44                  0                       # What read queue length does an incoming req see (Count)
system.far_mem_ctrl0.rdQLenPdf::45                  0                       # What read queue length does an incoming req see (Count)
system.far_mem_ctrl0.rdQLenPdf::46                  0                       # What read queue length does an incoming req see (Count)
system.far_mem_ctrl0.rdQLenPdf::47                  0                       # What read queue length does an incoming req see (Count)
system.far_mem_ctrl0.rdQLenPdf::48                  0                       # What read queue length does an incoming req see (Count)
system.far_mem_ctrl0.rdQLenPdf::49                  0                       # What read queue length does an incoming req see (Count)
system.far_mem_ctrl0.rdQLenPdf::50                  0                       # What read queue length does an incoming req see (Count)
system.far_mem_ctrl0.rdQLenPdf::51                  0                       # What read queue length does an incoming req see (Count)
system.far_mem_ctrl0.rdQLenPdf::52                  0                       # What read queue length does an incoming req see (Count)
system.far_mem_ctrl0.rdQLenPdf::53                  0                       # What read queue length does an incoming req see (Count)
system.far_mem_ctrl0.rdQLenPdf::54                  0                       # What read queue length does an incoming req see (Count)
system.far_mem_ctrl0.rdQLenPdf::55                  0                       # What read queue length does an incoming req see (Count)
system.far_mem_ctrl0.rdQLenPdf::56                  0                       # What read queue length does an incoming req see (Count)
system.far_mem_ctrl0.rdQLenPdf::57                  0                       # What read queue length does an incoming req see (Count)
system.far_mem_ctrl0.rdQLenPdf::58                  0                       # What read queue length does an incoming req see (Count)
system.far_mem_ctrl0.rdQLenPdf::59                  0                       # What read queue length does an incoming req see (Count)
system.far_mem_ctrl0.rdQLenPdf::60                  0                       # What read queue length does an incoming req see (Count)
system.far_mem_ctrl0.rdQLenPdf::61                  0                       # What read queue length does an incoming req see (Count)
system.far_mem_ctrl0.rdQLenPdf::62                  0                       # What read queue length does an incoming req see (Count)
system.far_mem_ctrl0.rdQLenPdf::63                  0                       # What read queue length does an incoming req see (Count)
system.far_mem_ctrl0.wrQLenPdf::0                   1                       # What write queue length does an incoming req see (Count)
system.far_mem_ctrl0.wrQLenPdf::1                   1                       # What write queue length does an incoming req see (Count)
system.far_mem_ctrl0.wrQLenPdf::2                   1                       # What write queue length does an incoming req see (Count)
system.far_mem_ctrl0.wrQLenPdf::3                   1                       # What write queue length does an incoming req see (Count)
system.far_mem_ctrl0.wrQLenPdf::4                   1                       # What write queue length does an incoming req see (Count)
system.far_mem_ctrl0.wrQLenPdf::5                   1                       # What write queue length does an incoming req see (Count)
system.far_mem_ctrl0.wrQLenPdf::6                   1                       # What write queue length does an incoming req see (Count)
system.far_mem_ctrl0.wrQLenPdf::7                   1                       # What write queue length does an incoming req see (Count)
system.far_mem_ctrl0.wrQLenPdf::8                   1                       # What write queue length does an incoming req see (Count)
system.far_mem_ctrl0.wrQLenPdf::9                   1                       # What write queue length does an incoming req see (Count)
system.far_mem_ctrl0.wrQLenPdf::10                  1                       # What write queue length does an incoming req see (Count)
system.far_mem_ctrl0.wrQLenPdf::11                  1                       # What write queue length does an incoming req see (Count)
system.far_mem_ctrl0.wrQLenPdf::12                  1                       # What write queue length does an incoming req see (Count)
system.far_mem_ctrl0.wrQLenPdf::13                  1                       # What write queue length does an incoming req see (Count)
system.far_mem_ctrl0.wrQLenPdf::14                  1                       # What write queue length does an incoming req see (Count)
system.far_mem_ctrl0.wrQLenPdf::15                  1                       # What write queue length does an incoming req see (Count)
system.far_mem_ctrl0.wrQLenPdf::16                  1                       # What write queue length does an incoming req see (Count)
system.far_mem_ctrl0.wrQLenPdf::17                  1                       # What write queue length does an incoming req see (Count)
system.far_mem_ctrl0.wrQLenPdf::18                  1                       # What write queue length does an incoming req see (Count)
system.far_mem_ctrl0.wrQLenPdf::19                  1                       # What write queue length does an incoming req see (Count)
system.far_mem_ctrl0.wrQLenPdf::20                  1                       # What write queue length does an incoming req see (Count)
system.far_mem_ctrl0.wrQLenPdf::21                  1                       # What write queue length does an incoming req see (Count)
system.far_mem_ctrl0.wrQLenPdf::22                  1                       # What write queue length does an incoming req see (Count)
system.far_mem_ctrl0.wrQLenPdf::23                  1                       # What write queue length does an incoming req see (Count)
system.far_mem_ctrl0.wrQLenPdf::24                  1                       # What write queue length does an incoming req see (Count)
system.far_mem_ctrl0.wrQLenPdf::25                  1                       # What write queue length does an incoming req see (Count)
system.far_mem_ctrl0.wrQLenPdf::26                  1                       # What write queue length does an incoming req see (Count)
system.far_mem_ctrl0.wrQLenPdf::27                  1                       # What write queue length does an incoming req see (Count)
system.far_mem_ctrl0.wrQLenPdf::28                  1                       # What write queue length does an incoming req see (Count)
system.far_mem_ctrl0.wrQLenPdf::29                  1                       # What write queue length does an incoming req see (Count)
system.far_mem_ctrl0.wrQLenPdf::30                  1                       # What write queue length does an incoming req see (Count)
system.far_mem_ctrl0.wrQLenPdf::31                  1                       # What write queue length does an incoming req see (Count)
system.far_mem_ctrl0.wrQLenPdf::32                  1                       # What write queue length does an incoming req see (Count)
system.far_mem_ctrl0.wrQLenPdf::33                  1                       # What write queue length does an incoming req see (Count)
system.far_mem_ctrl0.wrQLenPdf::34                  1                       # What write queue length does an incoming req see (Count)
system.far_mem_ctrl0.wrQLenPdf::35                  1                       # What write queue length does an incoming req see (Count)
system.far_mem_ctrl0.wrQLenPdf::36                  1                       # What write queue length does an incoming req see (Count)
system.far_mem_ctrl0.wrQLenPdf::37                  1                       # What write queue length does an incoming req see (Count)
system.far_mem_ctrl0.wrQLenPdf::38                  1                       # What write queue length does an incoming req see (Count)
system.far_mem_ctrl0.wrQLenPdf::39                  1                       # What write queue length does an incoming req see (Count)
system.far_mem_ctrl0.wrQLenPdf::40                  1                       # What write queue length does an incoming req see (Count)
system.far_mem_ctrl0.wrQLenPdf::41                  1                       # What write queue length does an incoming req see (Count)
system.far_mem_ctrl0.wrQLenPdf::42                  1                       # What write queue length does an incoming req see (Count)
system.far_mem_ctrl0.wrQLenPdf::43                  1                       # What write queue length does an incoming req see (Count)
system.far_mem_ctrl0.wrQLenPdf::44                  1                       # What write queue length does an incoming req see (Count)
system.far_mem_ctrl0.wrQLenPdf::45                  1                       # What write queue length does an incoming req see (Count)
system.far_mem_ctrl0.wrQLenPdf::46                  1                       # What write queue length does an incoming req see (Count)
system.far_mem_ctrl0.wrQLenPdf::47                589                       # What write queue length does an incoming req see (Count)
system.far_mem_ctrl0.wrQLenPdf::48                664                       # What write queue length does an incoming req see (Count)
system.far_mem_ctrl0.wrQLenPdf::49                668                       # What write queue length does an incoming req see (Count)
system.far_mem_ctrl0.wrQLenPdf::50                711                       # What write queue length does an incoming req see (Count)
system.far_mem_ctrl0.wrQLenPdf::51                765                       # What write queue length does an incoming req see (Count)
system.far_mem_ctrl0.wrQLenPdf::52                759                       # What write queue length does an incoming req see (Count)
system.far_mem_ctrl0.wrQLenPdf::53                774                       # What write queue length does an incoming req see (Count)
system.far_mem_ctrl0.wrQLenPdf::54                774                       # What write queue length does an incoming req see (Count)
system.far_mem_ctrl0.wrQLenPdf::55                825                       # What write queue length does an incoming req see (Count)
system.far_mem_ctrl0.wrQLenPdf::56                963                       # What write queue length does an incoming req see (Count)
system.far_mem_ctrl0.wrQLenPdf::57               1044                       # What write queue length does an incoming req see (Count)
system.far_mem_ctrl0.wrQLenPdf::58               1062                       # What write queue length does an incoming req see (Count)
system.far_mem_ctrl0.wrQLenPdf::59               1026                       # What write queue length does an incoming req see (Count)
system.far_mem_ctrl0.wrQLenPdf::60                998                       # What write queue length does an incoming req see (Count)
system.far_mem_ctrl0.wrQLenPdf::61                943                       # What write queue length does an incoming req see (Count)
system.far_mem_ctrl0.wrQLenPdf::62                880                       # What write queue length does an incoming req see (Count)
system.far_mem_ctrl0.wrQLenPdf::63               1286                       # What write queue length does an incoming req see (Count)
system.far_mem_ctrl0.wrQLenPdf::64               1129                       # What write queue length does an incoming req see (Count)
system.far_mem_ctrl0.wrQLenPdf::65                418                       # What write queue length does an incoming req see (Count)
system.far_mem_ctrl0.wrQLenPdf::66                333                       # What write queue length does an incoming req see (Count)
system.far_mem_ctrl0.wrQLenPdf::67                260                       # What write queue length does an incoming req see (Count)
system.far_mem_ctrl0.wrQLenPdf::68                203                       # What write queue length does an incoming req see (Count)
system.far_mem_ctrl0.wrQLenPdf::69                165                       # What write queue length does an incoming req see (Count)
system.far_mem_ctrl0.wrQLenPdf::70                148                       # What write queue length does an incoming req see (Count)
system.far_mem_ctrl0.wrQLenPdf::71                144                       # What write queue length does an incoming req see (Count)
system.far_mem_ctrl0.wrQLenPdf::72                140                       # What write queue length does an incoming req see (Count)
system.far_mem_ctrl0.wrQLenPdf::73                140                       # What write queue length does an incoming req see (Count)
system.far_mem_ctrl0.wrQLenPdf::74                136                       # What write queue length does an incoming req see (Count)
system.far_mem_ctrl0.wrQLenPdf::75                136                       # What write queue length does an incoming req see (Count)
system.far_mem_ctrl0.wrQLenPdf::76                136                       # What write queue length does an incoming req see (Count)
system.far_mem_ctrl0.wrQLenPdf::77                129                       # What write queue length does an incoming req see (Count)
system.far_mem_ctrl0.wrQLenPdf::78                137                       # What write queue length does an incoming req see (Count)
system.far_mem_ctrl0.wrQLenPdf::79                138                       # What write queue length does an incoming req see (Count)
system.far_mem_ctrl0.wrQLenPdf::80                140                       # What write queue length does an incoming req see (Count)
system.far_mem_ctrl0.wrQLenPdf::81                144                       # What write queue length does an incoming req see (Count)
system.far_mem_ctrl0.wrQLenPdf::82                151                       # What write queue length does an incoming req see (Count)
system.far_mem_ctrl0.wrQLenPdf::83                155                       # What write queue length does an incoming req see (Count)
system.far_mem_ctrl0.wrQLenPdf::84                142                       # What write queue length does an incoming req see (Count)
system.far_mem_ctrl0.wrQLenPdf::85                140                       # What write queue length does an incoming req see (Count)
system.far_mem_ctrl0.wrQLenPdf::86                129                       # What write queue length does an incoming req see (Count)
system.far_mem_ctrl0.wrQLenPdf::87                132                       # What write queue length does an incoming req see (Count)
system.far_mem_ctrl0.wrQLenPdf::88                134                       # What write queue length does an incoming req see (Count)
system.far_mem_ctrl0.wrQLenPdf::89                124                       # What write queue length does an incoming req see (Count)
system.far_mem_ctrl0.wrQLenPdf::90                125                       # What write queue length does an incoming req see (Count)
system.far_mem_ctrl0.wrQLenPdf::91                121                       # What write queue length does an incoming req see (Count)
system.far_mem_ctrl0.wrQLenPdf::92                109                       # What write queue length does an incoming req see (Count)
system.far_mem_ctrl0.wrQLenPdf::93                108                       # What write queue length does an incoming req see (Count)
system.far_mem_ctrl0.wrQLenPdf::94                108                       # What write queue length does an incoming req see (Count)
system.far_mem_ctrl0.wrQLenPdf::95                106                       # What write queue length does an incoming req see (Count)
system.far_mem_ctrl0.wrQLenPdf::96                108                       # What write queue length does an incoming req see (Count)
system.far_mem_ctrl0.wrQLenPdf::97                107                       # What write queue length does an incoming req see (Count)
system.far_mem_ctrl0.wrQLenPdf::98                 97                       # What write queue length does an incoming req see (Count)
system.far_mem_ctrl0.wrQLenPdf::99                101                       # What write queue length does an incoming req see (Count)
system.far_mem_ctrl0.wrQLenPdf::100               106                       # What write queue length does an incoming req see (Count)
system.far_mem_ctrl0.wrQLenPdf::101               101                       # What write queue length does an incoming req see (Count)
system.far_mem_ctrl0.wrQLenPdf::102               105                       # What write queue length does an incoming req see (Count)
system.far_mem_ctrl0.wrQLenPdf::103                96                       # What write queue length does an incoming req see (Count)
system.far_mem_ctrl0.wrQLenPdf::104                95                       # What write queue length does an incoming req see (Count)
system.far_mem_ctrl0.wrQLenPdf::105                89                       # What write queue length does an incoming req see (Count)
system.far_mem_ctrl0.wrQLenPdf::106                90                       # What write queue length does an incoming req see (Count)
system.far_mem_ctrl0.wrQLenPdf::107                84                       # What write queue length does an incoming req see (Count)
system.far_mem_ctrl0.wrQLenPdf::108                87                       # What write queue length does an incoming req see (Count)
system.far_mem_ctrl0.wrQLenPdf::109                90                       # What write queue length does an incoming req see (Count)
system.far_mem_ctrl0.wrQLenPdf::110                82                       # What write queue length does an incoming req see (Count)
system.far_mem_ctrl0.wrQLenPdf::111                80                       # What write queue length does an incoming req see (Count)
system.far_mem_ctrl0.wrQLenPdf::112                76                       # What write queue length does an incoming req see (Count)
system.far_mem_ctrl0.wrQLenPdf::113                75                       # What write queue length does an incoming req see (Count)
system.far_mem_ctrl0.wrQLenPdf::114                75                       # What write queue length does an incoming req see (Count)
system.far_mem_ctrl0.wrQLenPdf::115                83                       # What write queue length does an incoming req see (Count)
system.far_mem_ctrl0.wrQLenPdf::116                99                       # What write queue length does an incoming req see (Count)
system.far_mem_ctrl0.wrQLenPdf::117                92                       # What write queue length does an incoming req see (Count)
system.far_mem_ctrl0.wrQLenPdf::118                95                       # What write queue length does an incoming req see (Count)
system.far_mem_ctrl0.wrQLenPdf::119                84                       # What write queue length does an incoming req see (Count)
system.far_mem_ctrl0.wrQLenPdf::120                86                       # What write queue length does an incoming req see (Count)
system.far_mem_ctrl0.wrQLenPdf::121                95                       # What write queue length does an incoming req see (Count)
system.far_mem_ctrl0.wrQLenPdf::122                94                       # What write queue length does an incoming req see (Count)
system.far_mem_ctrl0.wrQLenPdf::123                92                       # What write queue length does an incoming req see (Count)
system.far_mem_ctrl0.wrQLenPdf::124               105                       # What write queue length does an incoming req see (Count)
system.far_mem_ctrl0.wrQLenPdf::125               105                       # What write queue length does an incoming req see (Count)
system.far_mem_ctrl0.wrQLenPdf::126               118                       # What write queue length does an incoming req see (Count)
system.far_mem_ctrl0.wrQLenPdf::127              6064                       # What write queue length does an incoming req see (Count)
system.far_mem_ctrl0.rdPerTurnAround::samples          589                       # Reads before turning the bus around for writes (Count)
system.far_mem_ctrl0.rdPerTurnAround::0           589    100.00%    100.00% # Reads before turning the bus around for writes (Count)
system.far_mem_ctrl0.rdPerTurnAround::total          589                       # Reads before turning the bus around for writes (Count)
system.far_mem_ctrl0.wrPerTurnAround::samples          588                       # Writes before turning the bus around for reads (Count)
system.far_mem_ctrl0.wrPerTurnAround::mean    46.363946                       # Writes before turning the bus around for reads (Count)
system.far_mem_ctrl0.wrPerTurnAround::gmean    27.757786                       # Writes before turning the bus around for reads (Count)
system.far_mem_ctrl0.wrPerTurnAround::stdev   233.729157                       # Writes before turning the bus around for reads (Count)
system.far_mem_ctrl0.wrPerTurnAround::0-63          573     97.45%     97.45% # Writes before turning the bus around for reads (Count)
system.far_mem_ctrl0.wrPerTurnAround::64-127            6      1.02%     98.47% # Writes before turning the bus around for reads (Count)
system.far_mem_ctrl0.wrPerTurnAround::128-191            1      0.17%     98.64% # Writes before turning the bus around for reads (Count)
system.far_mem_ctrl0.wrPerTurnAround::256-319            3      0.51%     99.15% # Writes before turning the bus around for reads (Count)
system.far_mem_ctrl0.wrPerTurnAround::448-511            1      0.17%     99.32% # Writes before turning the bus around for reads (Count)
system.far_mem_ctrl0.wrPerTurnAround::704-767            1      0.17%     99.49% # Writes before turning the bus around for reads (Count)
system.far_mem_ctrl0.wrPerTurnAround::1472-1535            1      0.17%     99.66% # Writes before turning the bus around for reads (Count)
system.far_mem_ctrl0.wrPerTurnAround::3456-3519            1      0.17%     99.83% # Writes before turning the bus around for reads (Count)
system.far_mem_ctrl0.wrPerTurnAround::4160-4223            1      0.17%    100.00% # Writes before turning the bus around for reads (Count)
system.far_mem_ctrl0.wrPerTurnAround::total          588                       # Writes before turning the bus around for reads (Count)
system.far_mem_ctrl0.bytesReadWrQ                   0                       # Total number of bytes read from write queue (Byte)
system.far_mem_ctrl0.bytesReadSys                   0                       # Total read bytes from the system interface side (Byte)
system.far_mem_ctrl0.bytesWrittenSys          1900416                       # Total written bytes from the system interface side (Byte)
system.far_mem_ctrl0.avgRdBWSys            0.00000000                       # Average system read bandwidth in Byte/s ((Byte/Second))
system.far_mem_ctrl0.avgWrBWSys          1899918586.11480665                       # Average system write bandwidth in Byte/s ((Byte/Second))
system.far_mem_ctrl0.totGap                 999293400                       # Total gap between requests (Tick)
system.far_mem_ctrl0.avgGap                  33653.04                       # Average gap between requests ((Tick/Count))
system.far_mem_ctrl0.requestorWriteBytes::writebacks      1894720                       # Per-requestor bytes write to memory (Byte)
system.far_mem_ctrl0.requestorWriteRate::writebacks 1894224076.982853412628                       # Per-requestor bytes write to memory rate ((Byte/Second))
system.far_mem_ctrl0.requestorWriteAccesses::writebacks        29694                       # Per-requestor write serviced memory accesses (Count)
system.far_mem_ctrl0.requestorWriteTotalLat::writebacks  76708223788                       # Per-requestor write total memory access latency (Tick)
system.far_mem_ctrl0.requestorWriteAvgLat::writebacks   2583290.35                       # Per-requestor write average memory access latency ((Tick/Count))
system.far_mem_ctrl0.dram.bytesWritten::writebacks      1900416                       # Number of bytes written to this memory (Byte)
system.far_mem_ctrl0.dram.bytesWritten::total      1900416                       # Number of bytes written to this memory (Byte)
system.far_mem_ctrl0.dram.numWrites::writebacks        29694                       # Number of write requests responded to by this memory (Count)
system.far_mem_ctrl0.dram.numWrites::total        29694                       # Number of write requests responded to by this memory (Count)
system.far_mem_ctrl0.dram.bwWrite::writebacks   1899918586                       # Write bandwidth from this memory ((Byte/Second))
system.far_mem_ctrl0.dram.bwWrite::total   1899918586                       # Write bandwidth from this memory ((Byte/Second))
system.far_mem_ctrl0.dram.bwTotal::writebacks   1899918586                       # Total bandwidth to/from this memory ((Byte/Second))
system.far_mem_ctrl0.dram.bwTotal::total   1899918586                       # Total bandwidth to/from this memory ((Byte/Second))
system.far_mem_ctrl0.dram.readBursts                0                       # Number of NVM read bursts (Count)
system.far_mem_ctrl0.dram.writeBursts           29605                       # Number of NVM write bursts (Count)
system.far_mem_ctrl0.dram.perBankRdBursts::0            0                       # Per bank write bursts (Count)
system.far_mem_ctrl0.dram.perBankRdBursts::1            0                       # Per bank write bursts (Count)
system.far_mem_ctrl0.dram.perBankRdBursts::2            0                       # Per bank write bursts (Count)
system.far_mem_ctrl0.dram.perBankRdBursts::3            0                       # Per bank write bursts (Count)
system.far_mem_ctrl0.dram.perBankRdBursts::4            0                       # Per bank write bursts (Count)
system.far_mem_ctrl0.dram.perBankRdBursts::5            0                       # Per bank write bursts (Count)
system.far_mem_ctrl0.dram.perBankRdBursts::6            0                       # Per bank write bursts (Count)
system.far_mem_ctrl0.dram.perBankRdBursts::7            0                       # Per bank write bursts (Count)
system.far_mem_ctrl0.dram.perBankRdBursts::8            0                       # Per bank write bursts (Count)
system.far_mem_ctrl0.dram.perBankRdBursts::9            0                       # Per bank write bursts (Count)
system.far_mem_ctrl0.dram.perBankRdBursts::10            0                       # Per bank write bursts (Count)
system.far_mem_ctrl0.dram.perBankRdBursts::11            0                       # Per bank write bursts (Count)
system.far_mem_ctrl0.dram.perBankRdBursts::12            0                       # Per bank write bursts (Count)
system.far_mem_ctrl0.dram.perBankRdBursts::13            0                       # Per bank write bursts (Count)
system.far_mem_ctrl0.dram.perBankRdBursts::14            0                       # Per bank write bursts (Count)
system.far_mem_ctrl0.dram.perBankRdBursts::15            0                       # Per bank write bursts (Count)
system.far_mem_ctrl0.dram.perBankWrBursts::0         1841                       # Per bank write bursts (Count)
system.far_mem_ctrl0.dram.perBankWrBursts::1         1904                       # Per bank write bursts (Count)
system.far_mem_ctrl0.dram.perBankWrBursts::2         1936                       # Per bank write bursts (Count)
system.far_mem_ctrl0.dram.perBankWrBursts::3         1885                       # Per bank write bursts (Count)
system.far_mem_ctrl0.dram.perBankWrBursts::4         1781                       # Per bank write bursts (Count)
system.far_mem_ctrl0.dram.perBankWrBursts::5         1856                       # Per bank write bursts (Count)
system.far_mem_ctrl0.dram.perBankWrBursts::6         1869                       # Per bank write bursts (Count)
system.far_mem_ctrl0.dram.perBankWrBursts::7         1815                       # Per bank write bursts (Count)
system.far_mem_ctrl0.dram.perBankWrBursts::8         1840                       # Per bank write bursts (Count)
system.far_mem_ctrl0.dram.perBankWrBursts::9         1825                       # Per bank write bursts (Count)
system.far_mem_ctrl0.dram.perBankWrBursts::10         1829                       # Per bank write bursts (Count)
system.far_mem_ctrl0.dram.perBankWrBursts::11         1882                       # Per bank write bursts (Count)
system.far_mem_ctrl0.dram.perBankWrBursts::12         1752                       # Per bank write bursts (Count)
system.far_mem_ctrl0.dram.perBankWrBursts::13         1843                       # Per bank write bursts (Count)
system.far_mem_ctrl0.dram.perBankWrBursts::14         1893                       # Per bank write bursts (Count)
system.far_mem_ctrl0.dram.perBankWrBursts::15         1854                       # Per bank write bursts (Count)
system.far_mem_ctrl0.dram.totQLat                   0                       # Total ticks spent queuing (Tick)
system.far_mem_ctrl0.dram.totBusLat                 0                       # Total ticks spent in databus transfers (Tick)
system.far_mem_ctrl0.dram.totMemAccLat              0                       # Total ticks spent from burst creation until serviced by the NVM (Tick)
system.far_mem_ctrl0.dram.avgQLat                 nan                       # Average queueing delay per NVM burst ((Tick/Count))
system.far_mem_ctrl0.dram.avgBusLat               nan                       # Average bus latency per NVM burst ((Tick/Count))
system.far_mem_ctrl0.dram.avgMemAccLat            nan                       # Average memory access latency per NVM burst ((Tick/Count))
system.far_mem_ctrl0.dram.avgRdBW                0.00                       # Average DRAM read bandwidth in MiBytes/s ((Byte/Second))
system.far_mem_ctrl0.dram.avgWrBW             1894.22                       # Average DRAM write bandwidth in MiBytes/s ((Byte/Second))
system.far_mem_ctrl0.dram.peakBW             19207.00                       # Theoretical peak bandwidth in MiByte/s ((Byte/Second))
system.far_mem_ctrl0.dram.busUtil                9.86                       # NVM Data bus utilization in percentage (Ratio)
system.far_mem_ctrl0.dram.busUtilRead            0.00                       # NVM Data bus read utilization in percentage (Ratio)
system.far_mem_ctrl0.dram.busUtilWrite           9.86                       # NVM Data bus write utilization in percentage (Ratio)
system.far_mem_ctrl0.dram.pendingWrites::samples        29477                       # Number of outstanding writes to NVM (Count)
system.far_mem_ctrl0.dram.pendingWrites::mean   111.184347                       # Number of outstanding writes to NVM (Count)
system.far_mem_ctrl0.dram.pendingWrites::gmean   108.324031                       # Number of outstanding writes to NVM (Count)
system.far_mem_ctrl0.dram.pendingWrites::stdev    22.428368                       # Number of outstanding writes to NVM (Count)
system.far_mem_ctrl0.dram.pendingWrites::6-7            2      0.01%      0.01% # Number of outstanding writes to NVM (Count)
system.far_mem_ctrl0.dram.pendingWrites::8-9            2      0.01%      0.01% # Number of outstanding writes to NVM (Count)
system.far_mem_ctrl0.dram.pendingWrites::10-11            2      0.01%      0.02% # Number of outstanding writes to NVM (Count)
system.far_mem_ctrl0.dram.pendingWrites::12-13            4      0.01%      0.03% # Number of outstanding writes to NVM (Count)
system.far_mem_ctrl0.dram.pendingWrites::14-15            6      0.02%      0.05% # Number of outstanding writes to NVM (Count)
system.far_mem_ctrl0.dram.pendingWrites::16-17            4      0.01%      0.07% # Number of outstanding writes to NVM (Count)
system.far_mem_ctrl0.dram.pendingWrites::18-19            3      0.01%      0.08% # Number of outstanding writes to NVM (Count)
system.far_mem_ctrl0.dram.pendingWrites::20-21            7      0.02%      0.10% # Number of outstanding writes to NVM (Count)
system.far_mem_ctrl0.dram.pendingWrites::22-23           10      0.03%      0.14% # Number of outstanding writes to NVM (Count)
system.far_mem_ctrl0.dram.pendingWrites::24-25            8      0.03%      0.16% # Number of outstanding writes to NVM (Count)
system.far_mem_ctrl0.dram.pendingWrites::26-27            8      0.03%      0.19% # Number of outstanding writes to NVM (Count)
system.far_mem_ctrl0.dram.pendingWrites::28-29            7      0.02%      0.21% # Number of outstanding writes to NVM (Count)
system.far_mem_ctrl0.dram.pendingWrites::30-31            8      0.03%      0.24% # Number of outstanding writes to NVM (Count)
system.far_mem_ctrl0.dram.pendingWrites::32-33            9      0.03%      0.27% # Number of outstanding writes to NVM (Count)
system.far_mem_ctrl0.dram.pendingWrites::34-35            6      0.02%      0.29% # Number of outstanding writes to NVM (Count)
system.far_mem_ctrl0.dram.pendingWrites::36-37            5      0.02%      0.31% # Number of outstanding writes to NVM (Count)
system.far_mem_ctrl0.dram.pendingWrites::38-39            5      0.02%      0.33% # Number of outstanding writes to NVM (Count)
system.far_mem_ctrl0.dram.pendingWrites::40-41            6      0.02%      0.35% # Number of outstanding writes to NVM (Count)
system.far_mem_ctrl0.dram.pendingWrites::42-43            9      0.03%      0.38% # Number of outstanding writes to NVM (Count)
system.far_mem_ctrl0.dram.pendingWrites::44-45           24      0.08%      0.46% # Number of outstanding writes to NVM (Count)
system.far_mem_ctrl0.dram.pendingWrites::46-47           29      0.10%      0.56% # Number of outstanding writes to NVM (Count)
system.far_mem_ctrl0.dram.pendingWrites::48-49           40      0.14%      0.69% # Number of outstanding writes to NVM (Count)
system.far_mem_ctrl0.dram.pendingWrites::50-51           61      0.21%      0.90% # Number of outstanding writes to NVM (Count)
system.far_mem_ctrl0.dram.pendingWrites::52-53           84      0.28%      1.18% # Number of outstanding writes to NVM (Count)
system.far_mem_ctrl0.dram.pendingWrites::54-55           97      0.33%      1.51% # Number of outstanding writes to NVM (Count)
system.far_mem_ctrl0.dram.pendingWrites::56-57          128      0.43%      1.95% # Number of outstanding writes to NVM (Count)
system.far_mem_ctrl0.dram.pendingWrites::58-59          162      0.55%      2.50% # Number of outstanding writes to NVM (Count)
system.far_mem_ctrl0.dram.pendingWrites::60-61          180      0.61%      3.11% # Number of outstanding writes to NVM (Count)
system.far_mem_ctrl0.dram.pendingWrites::62-63          222      0.75%      3.86% # Number of outstanding writes to NVM (Count)
system.far_mem_ctrl0.dram.pendingWrites::64-65          222      0.75%      4.61% # Number of outstanding writes to NVM (Count)
system.far_mem_ctrl0.dram.pendingWrites::66-67          250      0.85%      5.46% # Number of outstanding writes to NVM (Count)
system.far_mem_ctrl0.dram.pendingWrites::68-69          277      0.94%      6.40% # Number of outstanding writes to NVM (Count)
system.far_mem_ctrl0.dram.pendingWrites::70-71          329      1.12%      7.52% # Number of outstanding writes to NVM (Count)
system.far_mem_ctrl0.dram.pendingWrites::72-73          349      1.18%      8.70% # Number of outstanding writes to NVM (Count)
system.far_mem_ctrl0.dram.pendingWrites::74-75          398      1.35%     10.05% # Number of outstanding writes to NVM (Count)
system.far_mem_ctrl0.dram.pendingWrites::76-77          395      1.34%     11.39% # Number of outstanding writes to NVM (Count)
system.far_mem_ctrl0.dram.pendingWrites::78-79          401      1.36%     12.75% # Number of outstanding writes to NVM (Count)
system.far_mem_ctrl0.dram.pendingWrites::80-81          416      1.41%     14.16% # Number of outstanding writes to NVM (Count)
system.far_mem_ctrl0.dram.pendingWrites::82-83          444      1.51%     15.67% # Number of outstanding writes to NVM (Count)
system.far_mem_ctrl0.dram.pendingWrites::84-85          467      1.58%     17.25% # Number of outstanding writes to NVM (Count)
system.far_mem_ctrl0.dram.pendingWrites::86-87          470      1.59%     18.85% # Number of outstanding writes to NVM (Count)
system.far_mem_ctrl0.dram.pendingWrites::88-89          471      1.60%     20.45% # Number of outstanding writes to NVM (Count)
system.far_mem_ctrl0.dram.pendingWrites::90-91          461      1.56%     22.01% # Number of outstanding writes to NVM (Count)
system.far_mem_ctrl0.dram.pendingWrites::92-93          461      1.56%     23.57% # Number of outstanding writes to NVM (Count)
system.far_mem_ctrl0.dram.pendingWrites::94-95          480      1.63%     25.20% # Number of outstanding writes to NVM (Count)
system.far_mem_ctrl0.dram.pendingWrites::96-97          483      1.64%     26.84% # Number of outstanding writes to NVM (Count)
system.far_mem_ctrl0.dram.pendingWrites::98-99          489      1.66%     28.50% # Number of outstanding writes to NVM (Count)
system.far_mem_ctrl0.dram.pendingWrites::100-101          472      1.60%     30.10% # Number of outstanding writes to NVM (Count)
system.far_mem_ctrl0.dram.pendingWrites::102-103          471      1.60%     31.70% # Number of outstanding writes to NVM (Count)
system.far_mem_ctrl0.dram.pendingWrites::104-105          447      1.52%     33.22% # Number of outstanding writes to NVM (Count)
system.far_mem_ctrl0.dram.pendingWrites::106-107          443      1.50%     34.72% # Number of outstanding writes to NVM (Count)
system.far_mem_ctrl0.dram.pendingWrites::108-109          457      1.55%     36.27% # Number of outstanding writes to NVM (Count)
system.far_mem_ctrl0.dram.pendingWrites::110-111          463      1.57%     37.84% # Number of outstanding writes to NVM (Count)
system.far_mem_ctrl0.dram.pendingWrites::112-113          426      1.45%     39.28% # Number of outstanding writes to NVM (Count)
system.far_mem_ctrl0.dram.pendingWrites::114-115          421      1.43%     40.71% # Number of outstanding writes to NVM (Count)
system.far_mem_ctrl0.dram.pendingWrites::116-117          380      1.29%     42.00% # Number of outstanding writes to NVM (Count)
system.far_mem_ctrl0.dram.pendingWrites::118-119          365      1.24%     43.24% # Number of outstanding writes to NVM (Count)
system.far_mem_ctrl0.dram.pendingWrites::120-121          346      1.17%     44.41% # Number of outstanding writes to NVM (Count)
system.far_mem_ctrl0.dram.pendingWrites::122-123          329      1.12%     45.53% # Number of outstanding writes to NVM (Count)
system.far_mem_ctrl0.dram.pendingWrites::124-125          325      1.10%     46.63% # Number of outstanding writes to NVM (Count)
system.far_mem_ctrl0.dram.pendingWrites::126-127          350      1.19%     47.82% # Number of outstanding writes to NVM (Count)
system.far_mem_ctrl0.dram.pendingWrites::128-129        15381     52.18%    100.00% # Number of outstanding writes to NVM (Count)
system.far_mem_ctrl0.dram.pendingWrites::total        29477                       # Number of outstanding writes to NVM (Count)
system.far_mem_ctrl0.dram.bytesPerBank::samples        29605                       # Bytes read within a bank before loading new bank (Byte)
system.far_mem_ctrl0.dram.bytesPerBank::mean           64                       # Bytes read within a bank before loading new bank (Byte)
system.far_mem_ctrl0.dram.bytesPerBank::gmean    64.000000                       # Bytes read within a bank before loading new bank (Byte)
system.far_mem_ctrl0.dram.bytesPerBank::64        29605    100.00%    100.00% # Bytes read within a bank before loading new bank (Byte)
system.far_mem_ctrl0.dram.bytesPerBank::total        29605                       # Bytes read within a bank before loading new bank (Byte)
system.far_mem_ctrl0.dram.power_state.pwrStateResidencyTicks::UNDEFINED   1000261808                       # Cumulative time (in ticks) in various power states (Tick)
system.far_mem_ctrl0.power_state.pwrStateResidencyTicks::UNDEFINED   1000261808                       # Cumulative time (in ticks) in various power states (Tick)
system.far_mem_ctrl1.avgPriority_writebacks::samples     30051.00                       # Average QoS priority value for accepted requests (Count)
system.far_mem_ctrl1.priorityMinLatency  0.000001335976                       # per QoS priority minimum request to response latency (Second)
system.far_mem_ctrl1.priorityMaxLatency  0.000010032484                       # per QoS priority maximum request to response latency (Second)
system.far_mem_ctrl1.numReadWriteTurnArounds           15                       # Number of turnarounds from READ to WRITE (Count)
system.far_mem_ctrl1.numWriteReadTurnArounds           16                       # Number of turnarounds from WRITE to READ (Count)
system.far_mem_ctrl1.numStayReadState             502                       # Number of times bus staying in READ state (Count)
system.far_mem_ctrl1.numStayWriteState          58489                       # Number of times bus staying in WRITE state (Count)
system.far_mem_ctrl1.readReqs                       0                       # Number of read requests accepted (Count)
system.far_mem_ctrl1.writeReqs                  30051                       # Number of write requests accepted (Count)
system.far_mem_ctrl1.readBursts                     0                       # Number of controller read bursts, including those serviced by the write queue (Count)
system.far_mem_ctrl1.writeBursts                30051                       # Number of controller write bursts, including those merged in the write queue (Count)
system.far_mem_ctrl1.servicedByWrQ                  0                       # Number of controller read bursts serviced by the write queue (Count)
system.far_mem_ctrl1.mergedWrBursts                 0                       # Number of controller write bursts merged with an existing one (Count)
system.far_mem_ctrl1.neitherReadNorWriteReqs            0                       # Number of requests that are neither read nor write (Count)
system.far_mem_ctrl1.avgRdQLen                   0.00                       # Average read queue length when enqueuing ((Count/Tick))
system.far_mem_ctrl1.avgWrQLen                 126.73                       # Average write queue length when enqueuing ((Count/Tick))
system.far_mem_ctrl1.numRdRetry                     0                       # Number of times read queue was full causing retry (Count)
system.far_mem_ctrl1.numWrRetry                 24959                       # Number of times write queue was full causing retry (Count)
system.far_mem_ctrl1.readPktSize::0                 0                       # Read request sizes (log2) (Count)
system.far_mem_ctrl1.readPktSize::1                 0                       # Read request sizes (log2) (Count)
system.far_mem_ctrl1.readPktSize::2                 0                       # Read request sizes (log2) (Count)
system.far_mem_ctrl1.readPktSize::3                 0                       # Read request sizes (log2) (Count)
system.far_mem_ctrl1.readPktSize::4                 0                       # Read request sizes (log2) (Count)
system.far_mem_ctrl1.readPktSize::5                 0                       # Read request sizes (log2) (Count)
system.far_mem_ctrl1.readPktSize::6                 0                       # Read request sizes (log2) (Count)
system.far_mem_ctrl1.writePktSize::0                0                       # Write request sizes (log2) (Count)
system.far_mem_ctrl1.writePktSize::1                0                       # Write request sizes (log2) (Count)
system.far_mem_ctrl1.writePktSize::2                0                       # Write request sizes (log2) (Count)
system.far_mem_ctrl1.writePktSize::3                0                       # Write request sizes (log2) (Count)
system.far_mem_ctrl1.writePktSize::4                0                       # Write request sizes (log2) (Count)
system.far_mem_ctrl1.writePktSize::5                0                       # Write request sizes (log2) (Count)
system.far_mem_ctrl1.writePktSize::6            30051                       # Write request sizes (log2) (Count)
system.far_mem_ctrl1.rdQLenPdf::0                   0                       # What read queue length does an incoming req see (Count)
system.far_mem_ctrl1.rdQLenPdf::1                   0                       # What read queue length does an incoming req see (Count)
system.far_mem_ctrl1.rdQLenPdf::2                   0                       # What read queue length does an incoming req see (Count)
system.far_mem_ctrl1.rdQLenPdf::3                   0                       # What read queue length does an incoming req see (Count)
system.far_mem_ctrl1.rdQLenPdf::4                   0                       # What read queue length does an incoming req see (Count)
system.far_mem_ctrl1.rdQLenPdf::5                   0                       # What read queue length does an incoming req see (Count)
system.far_mem_ctrl1.rdQLenPdf::6                   0                       # What read queue length does an incoming req see (Count)
system.far_mem_ctrl1.rdQLenPdf::7                   0                       # What read queue length does an incoming req see (Count)
system.far_mem_ctrl1.rdQLenPdf::8                   0                       # What read queue length does an incoming req see (Count)
system.far_mem_ctrl1.rdQLenPdf::9                   0                       # What read queue length does an incoming req see (Count)
system.far_mem_ctrl1.rdQLenPdf::10                  0                       # What read queue length does an incoming req see (Count)
system.far_mem_ctrl1.rdQLenPdf::11                  0                       # What read queue length does an incoming req see (Count)
system.far_mem_ctrl1.rdQLenPdf::12                  0                       # What read queue length does an incoming req see (Count)
system.far_mem_ctrl1.rdQLenPdf::13                  0                       # What read queue length does an incoming req see (Count)
system.far_mem_ctrl1.rdQLenPdf::14                  0                       # What read queue length does an incoming req see (Count)
system.far_mem_ctrl1.rdQLenPdf::15                  0                       # What read queue length does an incoming req see (Count)
system.far_mem_ctrl1.rdQLenPdf::16                  0                       # What read queue length does an incoming req see (Count)
system.far_mem_ctrl1.rdQLenPdf::17                  0                       # What read queue length does an incoming req see (Count)
system.far_mem_ctrl1.rdQLenPdf::18                  0                       # What read queue length does an incoming req see (Count)
system.far_mem_ctrl1.rdQLenPdf::19                  0                       # What read queue length does an incoming req see (Count)
system.far_mem_ctrl1.rdQLenPdf::20                  0                       # What read queue length does an incoming req see (Count)
system.far_mem_ctrl1.rdQLenPdf::21                  0                       # What read queue length does an incoming req see (Count)
system.far_mem_ctrl1.rdQLenPdf::22                  0                       # What read queue length does an incoming req see (Count)
system.far_mem_ctrl1.rdQLenPdf::23                  0                       # What read queue length does an incoming req see (Count)
system.far_mem_ctrl1.rdQLenPdf::24                  0                       # What read queue length does an incoming req see (Count)
system.far_mem_ctrl1.rdQLenPdf::25                  0                       # What read queue length does an incoming req see (Count)
system.far_mem_ctrl1.rdQLenPdf::26                  0                       # What read queue length does an incoming req see (Count)
system.far_mem_ctrl1.rdQLenPdf::27                  0                       # What read queue length does an incoming req see (Count)
system.far_mem_ctrl1.rdQLenPdf::28                  0                       # What read queue length does an incoming req see (Count)
system.far_mem_ctrl1.rdQLenPdf::29                  0                       # What read queue length does an incoming req see (Count)
system.far_mem_ctrl1.rdQLenPdf::30                  0                       # What read queue length does an incoming req see (Count)
system.far_mem_ctrl1.rdQLenPdf::31                  0                       # What read queue length does an incoming req see (Count)
system.far_mem_ctrl1.rdQLenPdf::32                  0                       # What read queue length does an incoming req see (Count)
system.far_mem_ctrl1.rdQLenPdf::33                  0                       # What read queue length does an incoming req see (Count)
system.far_mem_ctrl1.rdQLenPdf::34                  0                       # What read queue length does an incoming req see (Count)
system.far_mem_ctrl1.rdQLenPdf::35                  0                       # What read queue length does an incoming req see (Count)
system.far_mem_ctrl1.rdQLenPdf::36                  0                       # What read queue length does an incoming req see (Count)
system.far_mem_ctrl1.rdQLenPdf::37                  0                       # What read queue length does an incoming req see (Count)
system.far_mem_ctrl1.rdQLenPdf::38                  0                       # What read queue length does an incoming req see (Count)
system.far_mem_ctrl1.rdQLenPdf::39                  0                       # What read queue length does an incoming req see (Count)
system.far_mem_ctrl1.rdQLenPdf::40                  0                       # What read queue length does an incoming req see (Count)
system.far_mem_ctrl1.rdQLenPdf::41                  0                       # What read queue length does an incoming req see (Count)
system.far_mem_ctrl1.rdQLenPdf::42                  0                       # What read queue length does an incoming req see (Count)
system.far_mem_ctrl1.rdQLenPdf::43                  0                       # What read queue length does an incoming req see (Count)
system.far_mem_ctrl1.rdQLenPdf::44                  0                       # What read queue length does an incoming req see (Count)
system.far_mem_ctrl1.rdQLenPdf::45                  0                       # What read queue length does an incoming req see (Count)
system.far_mem_ctrl1.rdQLenPdf::46                  0                       # What read queue length does an incoming req see (Count)
system.far_mem_ctrl1.rdQLenPdf::47                  0                       # What read queue length does an incoming req see (Count)
system.far_mem_ctrl1.rdQLenPdf::48                  0                       # What read queue length does an incoming req see (Count)
system.far_mem_ctrl1.rdQLenPdf::49                  0                       # What read queue length does an incoming req see (Count)
system.far_mem_ctrl1.rdQLenPdf::50                  0                       # What read queue length does an incoming req see (Count)
system.far_mem_ctrl1.rdQLenPdf::51                  0                       # What read queue length does an incoming req see (Count)
system.far_mem_ctrl1.rdQLenPdf::52                  0                       # What read queue length does an incoming req see (Count)
system.far_mem_ctrl1.rdQLenPdf::53                  0                       # What read queue length does an incoming req see (Count)
system.far_mem_ctrl1.rdQLenPdf::54                  0                       # What read queue length does an incoming req see (Count)
system.far_mem_ctrl1.rdQLenPdf::55                  0                       # What read queue length does an incoming req see (Count)
system.far_mem_ctrl1.rdQLenPdf::56                  0                       # What read queue length does an incoming req see (Count)
system.far_mem_ctrl1.rdQLenPdf::57                  0                       # What read queue length does an incoming req see (Count)
system.far_mem_ctrl1.rdQLenPdf::58                  0                       # What read queue length does an incoming req see (Count)
system.far_mem_ctrl1.rdQLenPdf::59                  0                       # What read queue length does an incoming req see (Count)
system.far_mem_ctrl1.rdQLenPdf::60                  0                       # What read queue length does an incoming req see (Count)
system.far_mem_ctrl1.rdQLenPdf::61                  0                       # What read queue length does an incoming req see (Count)
system.far_mem_ctrl1.rdQLenPdf::62                  0                       # What read queue length does an incoming req see (Count)
system.far_mem_ctrl1.rdQLenPdf::63                  0                       # What read queue length does an incoming req see (Count)
system.far_mem_ctrl1.wrQLenPdf::0                   1                       # What write queue length does an incoming req see (Count)
system.far_mem_ctrl1.wrQLenPdf::1                   1                       # What write queue length does an incoming req see (Count)
system.far_mem_ctrl1.wrQLenPdf::2                   1                       # What write queue length does an incoming req see (Count)
system.far_mem_ctrl1.wrQLenPdf::3                   1                       # What write queue length does an incoming req see (Count)
system.far_mem_ctrl1.wrQLenPdf::4                   1                       # What write queue length does an incoming req see (Count)
system.far_mem_ctrl1.wrQLenPdf::5                   1                       # What write queue length does an incoming req see (Count)
system.far_mem_ctrl1.wrQLenPdf::6                   1                       # What write queue length does an incoming req see (Count)
system.far_mem_ctrl1.wrQLenPdf::7                   1                       # What write queue length does an incoming req see (Count)
system.far_mem_ctrl1.wrQLenPdf::8                   1                       # What write queue length does an incoming req see (Count)
system.far_mem_ctrl1.wrQLenPdf::9                   1                       # What write queue length does an incoming req see (Count)
system.far_mem_ctrl1.wrQLenPdf::10                  1                       # What write queue length does an incoming req see (Count)
system.far_mem_ctrl1.wrQLenPdf::11                  1                       # What write queue length does an incoming req see (Count)
system.far_mem_ctrl1.wrQLenPdf::12                  1                       # What write queue length does an incoming req see (Count)
system.far_mem_ctrl1.wrQLenPdf::13                  1                       # What write queue length does an incoming req see (Count)
system.far_mem_ctrl1.wrQLenPdf::14                  1                       # What write queue length does an incoming req see (Count)
system.far_mem_ctrl1.wrQLenPdf::15                  1                       # What write queue length does an incoming req see (Count)
system.far_mem_ctrl1.wrQLenPdf::16                  1                       # What write queue length does an incoming req see (Count)
system.far_mem_ctrl1.wrQLenPdf::17                  1                       # What write queue length does an incoming req see (Count)
system.far_mem_ctrl1.wrQLenPdf::18                  1                       # What write queue length does an incoming req see (Count)
system.far_mem_ctrl1.wrQLenPdf::19                  1                       # What write queue length does an incoming req see (Count)
system.far_mem_ctrl1.wrQLenPdf::20                  1                       # What write queue length does an incoming req see (Count)
system.far_mem_ctrl1.wrQLenPdf::21                  1                       # What write queue length does an incoming req see (Count)
system.far_mem_ctrl1.wrQLenPdf::22                  1                       # What write queue length does an incoming req see (Count)
system.far_mem_ctrl1.wrQLenPdf::23                  1                       # What write queue length does an incoming req see (Count)
system.far_mem_ctrl1.wrQLenPdf::24                  1                       # What write queue length does an incoming req see (Count)
system.far_mem_ctrl1.wrQLenPdf::25                  1                       # What write queue length does an incoming req see (Count)
system.far_mem_ctrl1.wrQLenPdf::26                  1                       # What write queue length does an incoming req see (Count)
system.far_mem_ctrl1.wrQLenPdf::27                  1                       # What write queue length does an incoming req see (Count)
system.far_mem_ctrl1.wrQLenPdf::28                  1                       # What write queue length does an incoming req see (Count)
system.far_mem_ctrl1.wrQLenPdf::29                  1                       # What write queue length does an incoming req see (Count)
system.far_mem_ctrl1.wrQLenPdf::30                  1                       # What write queue length does an incoming req see (Count)
system.far_mem_ctrl1.wrQLenPdf::31                  1                       # What write queue length does an incoming req see (Count)
system.far_mem_ctrl1.wrQLenPdf::32                  1                       # What write queue length does an incoming req see (Count)
system.far_mem_ctrl1.wrQLenPdf::33                  1                       # What write queue length does an incoming req see (Count)
system.far_mem_ctrl1.wrQLenPdf::34                  1                       # What write queue length does an incoming req see (Count)
system.far_mem_ctrl1.wrQLenPdf::35                  1                       # What write queue length does an incoming req see (Count)
system.far_mem_ctrl1.wrQLenPdf::36                  1                       # What write queue length does an incoming req see (Count)
system.far_mem_ctrl1.wrQLenPdf::37                  1                       # What write queue length does an incoming req see (Count)
system.far_mem_ctrl1.wrQLenPdf::38                  1                       # What write queue length does an incoming req see (Count)
system.far_mem_ctrl1.wrQLenPdf::39                  1                       # What write queue length does an incoming req see (Count)
system.far_mem_ctrl1.wrQLenPdf::40                  1                       # What write queue length does an incoming req see (Count)
system.far_mem_ctrl1.wrQLenPdf::41                  1                       # What write queue length does an incoming req see (Count)
system.far_mem_ctrl1.wrQLenPdf::42                  1                       # What write queue length does an incoming req see (Count)
system.far_mem_ctrl1.wrQLenPdf::43                  1                       # What write queue length does an incoming req see (Count)
system.far_mem_ctrl1.wrQLenPdf::44                  1                       # What write queue length does an incoming req see (Count)
system.far_mem_ctrl1.wrQLenPdf::45                  1                       # What write queue length does an incoming req see (Count)
system.far_mem_ctrl1.wrQLenPdf::46                  1                       # What write queue length does an incoming req see (Count)
system.far_mem_ctrl1.wrQLenPdf::47                 16                       # What write queue length does an incoming req see (Count)
system.far_mem_ctrl1.wrQLenPdf::48                 18                       # What write queue length does an incoming req see (Count)
system.far_mem_ctrl1.wrQLenPdf::49                 23                       # What write queue length does an incoming req see (Count)
system.far_mem_ctrl1.wrQLenPdf::50                 21                       # What write queue length does an incoming req see (Count)
system.far_mem_ctrl1.wrQLenPdf::51                 18                       # What write queue length does an incoming req see (Count)
system.far_mem_ctrl1.wrQLenPdf::52                 21                       # What write queue length does an incoming req see (Count)
system.far_mem_ctrl1.wrQLenPdf::53                 20                       # What write queue length does an incoming req see (Count)
system.far_mem_ctrl1.wrQLenPdf::54                 23                       # What write queue length does an incoming req see (Count)
system.far_mem_ctrl1.wrQLenPdf::55                 28                       # What write queue length does an incoming req see (Count)
system.far_mem_ctrl1.wrQLenPdf::56                 23                       # What write queue length does an incoming req see (Count)
system.far_mem_ctrl1.wrQLenPdf::57                 22                       # What write queue length does an incoming req see (Count)
system.far_mem_ctrl1.wrQLenPdf::58                 21                       # What write queue length does an incoming req see (Count)
system.far_mem_ctrl1.wrQLenPdf::59                 22                       # What write queue length does an incoming req see (Count)
system.far_mem_ctrl1.wrQLenPdf::60                 21                       # What write queue length does an incoming req see (Count)
system.far_mem_ctrl1.wrQLenPdf::61                 19                       # What write queue length does an incoming req see (Count)
system.far_mem_ctrl1.wrQLenPdf::62                 19                       # What write queue length does an incoming req see (Count)
system.far_mem_ctrl1.wrQLenPdf::63                 24                       # What write queue length does an incoming req see (Count)
system.far_mem_ctrl1.wrQLenPdf::64                 19                       # What write queue length does an incoming req see (Count)
system.far_mem_ctrl1.wrQLenPdf::65                  4                       # What write queue length does an incoming req see (Count)
system.far_mem_ctrl1.wrQLenPdf::66                  4                       # What write queue length does an incoming req see (Count)
system.far_mem_ctrl1.wrQLenPdf::67                  2                       # What write queue length does an incoming req see (Count)
system.far_mem_ctrl1.wrQLenPdf::68                  1                       # What write queue length does an incoming req see (Count)
system.far_mem_ctrl1.wrQLenPdf::69                  2                       # What write queue length does an incoming req see (Count)
system.far_mem_ctrl1.wrQLenPdf::70                  2                       # What write queue length does an incoming req see (Count)
system.far_mem_ctrl1.wrQLenPdf::71                  2                       # What write queue length does an incoming req see (Count)
system.far_mem_ctrl1.wrQLenPdf::72                  2                       # What write queue length does an incoming req see (Count)
system.far_mem_ctrl1.wrQLenPdf::73                  3                       # What write queue length does an incoming req see (Count)
system.far_mem_ctrl1.wrQLenPdf::74                  2                       # What write queue length does an incoming req see (Count)
system.far_mem_ctrl1.wrQLenPdf::75                  3                       # What write queue length does an incoming req see (Count)
system.far_mem_ctrl1.wrQLenPdf::76                  3                       # What write queue length does an incoming req see (Count)
system.far_mem_ctrl1.wrQLenPdf::77                  1                       # What write queue length does an incoming req see (Count)
system.far_mem_ctrl1.wrQLenPdf::78                  3                       # What write queue length does an incoming req see (Count)
system.far_mem_ctrl1.wrQLenPdf::79                  2                       # What write queue length does an incoming req see (Count)
system.far_mem_ctrl1.wrQLenPdf::80                  2                       # What write queue length does an incoming req see (Count)
system.far_mem_ctrl1.wrQLenPdf::81                  2                       # What write queue length does an incoming req see (Count)
system.far_mem_ctrl1.wrQLenPdf::82                  2                       # What write queue length does an incoming req see (Count)
system.far_mem_ctrl1.wrQLenPdf::83                  4                       # What write queue length does an incoming req see (Count)
system.far_mem_ctrl1.wrQLenPdf::84                  2                       # What write queue length does an incoming req see (Count)
system.far_mem_ctrl1.wrQLenPdf::85                  4                       # What write queue length does an incoming req see (Count)
system.far_mem_ctrl1.wrQLenPdf::86                  3                       # What write queue length does an incoming req see (Count)
system.far_mem_ctrl1.wrQLenPdf::87                  2                       # What write queue length does an incoming req see (Count)
system.far_mem_ctrl1.wrQLenPdf::88                  1                       # What write queue length does an incoming req see (Count)
system.far_mem_ctrl1.wrQLenPdf::89                  1                       # What write queue length does an incoming req see (Count)
system.far_mem_ctrl1.wrQLenPdf::90                  1                       # What write queue length does an incoming req see (Count)
system.far_mem_ctrl1.wrQLenPdf::91                  1                       # What write queue length does an incoming req see (Count)
system.far_mem_ctrl1.wrQLenPdf::92                  1                       # What write queue length does an incoming req see (Count)
system.far_mem_ctrl1.wrQLenPdf::93                  1                       # What write queue length does an incoming req see (Count)
system.far_mem_ctrl1.wrQLenPdf::94                  2                       # What write queue length does an incoming req see (Count)
system.far_mem_ctrl1.wrQLenPdf::95                  3                       # What write queue length does an incoming req see (Count)
system.far_mem_ctrl1.wrQLenPdf::96                  2                       # What write queue length does an incoming req see (Count)
system.far_mem_ctrl1.wrQLenPdf::97                  2                       # What write queue length does an incoming req see (Count)
system.far_mem_ctrl1.wrQLenPdf::98                  2                       # What write queue length does an incoming req see (Count)
system.far_mem_ctrl1.wrQLenPdf::99                  3                       # What write queue length does an incoming req see (Count)
system.far_mem_ctrl1.wrQLenPdf::100                 3                       # What write queue length does an incoming req see (Count)
system.far_mem_ctrl1.wrQLenPdf::101                 3                       # What write queue length does an incoming req see (Count)
system.far_mem_ctrl1.wrQLenPdf::102                 3                       # What write queue length does an incoming req see (Count)
system.far_mem_ctrl1.wrQLenPdf::103                 2                       # What write queue length does an incoming req see (Count)
system.far_mem_ctrl1.wrQLenPdf::104                 1                       # What write queue length does an incoming req see (Count)
system.far_mem_ctrl1.wrQLenPdf::105                 2                       # What write queue length does an incoming req see (Count)
system.far_mem_ctrl1.wrQLenPdf::106                 2                       # What write queue length does an incoming req see (Count)
system.far_mem_ctrl1.wrQLenPdf::107                 2                       # What write queue length does an incoming req see (Count)
system.far_mem_ctrl1.wrQLenPdf::108                 2                       # What write queue length does an incoming req see (Count)
system.far_mem_ctrl1.wrQLenPdf::109                 2                       # What write queue length does an incoming req see (Count)
system.far_mem_ctrl1.wrQLenPdf::110                 1                       # What write queue length does an incoming req see (Count)
system.far_mem_ctrl1.wrQLenPdf::111                 1                       # What write queue length does an incoming req see (Count)
system.far_mem_ctrl1.wrQLenPdf::112                 1                       # What write queue length does an incoming req see (Count)
system.far_mem_ctrl1.wrQLenPdf::113                 1                       # What write queue length does an incoming req see (Count)
system.far_mem_ctrl1.wrQLenPdf::114                 1                       # What write queue length does an incoming req see (Count)
system.far_mem_ctrl1.wrQLenPdf::115                 1                       # What write queue length does an incoming req see (Count)
system.far_mem_ctrl1.wrQLenPdf::116                 2                       # What write queue length does an incoming req see (Count)
system.far_mem_ctrl1.wrQLenPdf::117                 2                       # What write queue length does an incoming req see (Count)
system.far_mem_ctrl1.wrQLenPdf::118                 4                       # What write queue length does an incoming req see (Count)
[...]
system.membus.pktCount_system.generators08.port::total        11313                       # Packet count per connected requestor and responder (Count)
system.membus.pktCount_system.generators09.port::system.mem_ctrl0.port         5800                       # Packet count per connected requestor and responder (Count)
system.membus.pktCount_system.generators09.port::system.mem_ctrl1.port         5676                       # Packet count per connected requestor and responder (Count)
system.membus.pktCount_system.generators09.port::total        11476                       # Packet count per connected requestor and responder (Count)
system.membus.pktCount_system.generators10.port::system.mem_ctrl0.port         5502                       # Packet count per connected requestor and responder (Count)
system.membus.pktCount_system.generators10.port::system.mem_ctrl1.port         5680                       # Packet count per connected requestor and responder (Count)
system.membus.pktCount_system.generators10.port::total        11182                       # Packet count per connected requestor and responder (Count)
system.membus.pktCount_system.generators11.port::system.mem_ctrl0.port         5798                       # Packet count per connected requestor and responder (Count)
system.membus.pktCount_system.generators11.port::system.mem_ctrl1.port         5562                       # Packet count per connected requestor and responder (Count)
system.membus.pktCount_system.generators11.port::total        11360                       # Packet count per connected requestor and responder (Count)
system.membus.pktCount_system.generators12.port::system.mem_ctrl0.port         5574                       # Packet count per connected requestor and responder (Count)
system.membus.pktCount_system.generators12.port::system.mem_ctrl1.port         5680                       # Packet count per connected requestor and responder (Count)
system.membus.pktCount_system.generators12.port::total        11254                       # Packet count per connected requestor and responder (Count)
system.membus.pktCount_system.generators13.port::system.mem_ctrl0.port         5636                       # Packet count per connected requestor and responder (Count)
system.membus.pktCount_system.generators13.port::system.mem_ctrl1.port         5724                       # Packet count per connected requestor and responder (Count)
system.membus.pktCount_system.generators13.port::total        11360                       # Packet count per connected requestor and responder (Count)
system.membus.pktCount_system.generators14.port::system.mem_ctrl0.port         5618                       # Packet count per connected requestor and responder (Count)
system.membus.pktCount_system.generators14.port::system.mem_ctrl1.port         5734                       # Packet count per connected requestor and responder (Count)
system.membus.pktCount_system.generators14.port::total        11352                       # Packet count per connected requestor and responder (Count)
system.membus.pktCount_system.generators15.port::system.mem_ctrl0.port         5426                       # Packet count per connected requestor and responder (Count)
system.membus.pktCount_system.generators15.port::system.mem_ctrl1.port         5842                       # Packet count per connected requestor and responder (Count)
system.membus.pktCount_system.generators15.port::total        11268                       # Packet count per connected requestor and responder (Count)
system.membus.pktCount::total                  181117                       # Packet count per connected requestor and responder (Count)
system.membus.pktSize_system.generators00.port::system.mem_ctrl0.port       179968                       # Cumulative packet size per connected requestor and responder (Byte)
system.membus.pktSize_system.generators00.port::system.mem_ctrl1.port       181120                       # Cumulative packet size per connected requestor and responder (Byte)
system.membus.pktSize_system.generators00.port::total       361088                       # Cumulative packet size per connected requestor and responder (Byte)
system.membus.pktSize_system.generators01.port::system.mem_ctrl0.port       181952                       # Cumulative packet size per connected requestor and responder (Byte)
system.membus.pktSize_system.generators01.port::system.mem_ctrl1.port       182080                       # Cumulative packet size per connected requestor and responder (Byte)
system.membus.pktSize_system.generators01.port::total       364032                       # Cumulative packet size per connected requestor and responder (Byte)
system.membus.pktSize_system.generators02.port::system.mem_ctrl0.port       178240                       # Cumulative packet size per connected requestor and responder (Byte)
system.membus.pktSize_system.generators02.port::system.mem_ctrl1.port       182912                       # Cumulative packet size per connected requestor and responder (Byte)
system.membus.pktSize_system.generators02.port::total       361152                       # Cumulative packet size per connected requestor and responder (Byte)
system.membus.pktSize_system.generators03.port::system.mem_ctrl0.port       179712                       # Cumulative packet size per connected requestor and responder (Byte)
system.membus.pktSize_system.generators03.port::system.mem_ctrl1.port       181568                       # Cumulative packet size per connected requestor and responder (Byte)
system.membus.pktSize_system.generators03.port::total       361280                       # Cumulative packet size per connected requestor and responder (Byte)
system.membus.pktSize_system.generators04.port::system.mem_ctrl0.port       179712                       # Cumulative packet size per connected requestor and responder (Byte)
system.membus.pktSize_system.generators04.port::system.mem_ctrl1.port       181568                       # Cumulative packet size per connected requestor and responder (Byte)
system.membus.pktSize_system.generators04.port::total       361280                       # Cumulative packet size per connected requestor and responder (Byte)
system.membus.pktSize_system.generators05.port::system.mem_ctrl0.port       181824                       # Cumulative packet size per connected requestor and responder (Byte)
system.membus.pktSize_system.generators05.port::system.mem_ctrl1.port       181760                       # Cumulative packet size per connected requestor and responder (Byte)
system.membus.pktSize_system.generators05.port::total       363584                       # Cumulative packet size per connected requestor and responder (Byte)
system.membus.pktSize_system.generators06.port::system.mem_ctrl0.port       179456                       # Cumulative packet size per connected requestor and responder (Byte)
system.membus.pktSize_system.generators06.port::system.mem_ctrl1.port       182912                       # Cumulative packet size per connected requestor and responder (Byte)
system.membus.pktSize_system.generators06.port::total       362368                       # Cumulative packet size per connected requestor and responder (Byte)
system.membus.pktSize_system.generators07.port::system.mem_ctrl0.port       180096                       # Cumulative packet size per connected requestor and responder (Byte)
system.membus.pktSize_system.generators07.port::system.mem_ctrl1.port       182784                       # Cumulative packet size per connected requestor and responder (Byte)
system.membus.pktSize_system.generators07.port::total       362880                       # Cumulative packet size per connected requestor and responder (Byte)
system.membus.pktSize_system.generators08.port::system.mem_ctrl0.port       180096                       # Cumulative packet size per connected requestor and responder (Byte)
system.membus.pktSize_system.generators08.port::system.mem_ctrl1.port       181952                       # Cumulative packet size per connected requestor and responder (Byte)
system.membus.pktSize_system.generators08.port::total       362048                       # Cumulative packet size per connected requestor and responder (Byte)
system.membus.pktSize_system.generators09.port::system.mem_ctrl0.port       185600                       # Cumulative packet size per connected requestor and responder (Byte)
system.membus.pktSize_system.generators09.port::system.mem_ctrl1.port       181632                       # Cumulative packet size per connected requestor and responder (Byte)
system.membus.pktSize_system.generators09.port::total       367232                       # Cumulative packet size per connected requestor and responder (Byte)
system.membus.pktSize_system.generators10.port::system.mem_ctrl0.port       176064                       # Cumulative packet size per connected requestor and responder (Byte)
system.membus.pktSize_system.generators10.port::system.mem_ctrl1.port       181760                       # Cumulative packet size per connected requestor and responder (Byte)
system.membus.pktSize_system.generators10.port::total       357824                       # Cumulative packet size per connected requestor and responder (Byte)
system.membus.pktSize_system.generators11.port::system.mem_ctrl0.port       185536                       # Cumulative packet size per connected requestor and responder (Byte)
system.membus.pktSize_system.generators11.port::system.mem_ctrl1.port       177984                       # Cumulative packet size per connected requestor and responder (Byte)
system.membus.pktSize_system.generators11.port::total       363520                       # Cumulative packet size per connected requestor and responder (Byte)
system.membus.pktSize_system.generators12.port::system.mem_ctrl0.port       178368                       # Cumulative packet size per connected requestor and responder (Byte)
system.membus.pktSize_system.generators12.port::system.mem_ctrl1.port       181760                       # Cumulative packet size per connected requestor and responder (Byte)
system.membus.pktSize_system.generators12.port::total       360128                       # Cumulative packet size per connected requestor and responder (Byte)
system.membus.pktSize_system.generators13.port::system.mem_ctrl0.port       180352                       # Cumulative packet size per connected requestor and responder (Byte)
system.membus.pktSize_system.generators13.port::system.mem_ctrl1.port       183168                       # Cumulative packet size per connected requestor and responder (Byte)
system.membus.pktSize_system.generators13.port::total       363520                       # Cumulative packet size per connected requestor and responder (Byte)
system.membus.pktSize_system.generators14.port::system.mem_ctrl0.port       179776                       # Cumulative packet size per connected requestor and responder (Byte)
system.membus.pktSize_system.generators14.port::system.mem_ctrl1.port       183488                       # Cumulative packet size per connected requestor and responder (Byte)
system.membus.pktSize_system.generators14.port::total       363264                       # Cumulative packet size per connected requestor and responder (Byte)
system.membus.pktSize_system.generators15.port::system.mem_ctrl0.port       173632                       # Cumulative packet size per connected requestor and responder (Byte)
system.membus.pktSize_system.generators15.port::system.mem_ctrl1.port       186944                       # Cumulative packet size per connected requestor and responder (Byte)
system.membus.pktSize_system.generators15.port::total       360576                       # Cumulative packet size per connected requestor and responder (Byte)
system.membus.pktSize::total                  5795776                       # Cumulative packet size per connected requestor and responder (Byte)
system.membus.power_state.pwrStateResidencyTicks::UNDEFINED   1000261808                       # Cumulative time (in ticks) in various power states (Tick)
system.membus.reqLayer0.occupancy            21813792                       # Layer occupancy (ticks) (Tick)
system.membus.reqLayer0.utilization               0.0                       # Layer utilization (Ratio)
system.membus.reqLayer1.occupancy            20009684                       # Layer occupancy (ticks) (Tick)
system.membus.reqLayer1.utilization               0.0                       # Layer utilization (Ratio)
system.membus.respLayer0.occupancy            1128402                       # Layer occupancy (ticks) (Tick)
system.membus.respLayer0.utilization              0.0                       # Layer utilization (Ratio)
system.membus.respLayer1.occupancy            1137600                       # Layer occupancy (ticks) (Tick)
system.membus.respLayer1.utilization              0.0                       # Layer utilization (Ratio)
system.membus.respLayer10.occupancy           1118210                       # Layer occupancy (ticks) (Tick)
system.membus.respLayer10.utilization             0.0                       # Layer utilization (Ratio)
system.membus.respLayer11.occupancy           1136269                       # Layer occupancy (ticks) (Tick)
system.membus.respLayer11.utilization             0.0                       # Layer utilization (Ratio)
system.membus.respLayer12.occupancy           1125406                       # Layer occupancy (ticks) (Tick)
system.membus.respLayer12.utilization             0.0                       # Layer utilization (Ratio)
system.membus.respLayer13.occupancy           1136584                       # Layer occupancy (ticks) (Tick)
system.membus.respLayer13.utilization             0.0                       # Layer utilization (Ratio)
system.membus.respLayer14.occupancy           1135230                       # Layer occupancy (ticks) (Tick)
system.membus.respLayer14.utilization             0.0                       # Layer utilization (Ratio)
system.membus.respLayer15.occupancy           1126948                       # Layer occupancy (ticks) (Tick)
system.membus.respLayer15.utilization             0.0                       # Layer utilization (Ratio)
system.membus.respLayer2.occupancy            1128799                       # Layer occupancy (ticks) (Tick)
system.membus.respLayer2.utilization              0.0                       # Layer utilization (Ratio)
system.membus.respLayer3.occupancy            1129008                       # Layer occupancy (ticks) (Tick)
system.membus.respLayer3.utilization              0.0                       # Layer utilization (Ratio)
system.membus.respLayer4.occupancy            1129010                       # Layer occupancy (ticks) (Tick)
system.membus.respLayer4.utilization              0.0                       # Layer utilization (Ratio)
system.membus.respLayer5.occupancy            1136601                       # Layer occupancy (ticks) (Tick)
system.membus.respLayer5.utilization              0.0                       # Layer utilization (Ratio)
system.membus.respLayer6.occupancy            1132400                       # Layer occupancy (ticks) (Tick)
system.membus.respLayer6.utilization              0.0                       # Layer utilization (Ratio)
system.membus.respLayer7.occupancy            1134006                       # Layer occupancy (ticks) (Tick)
system.membus.respLayer7.utilization              0.0                       # Layer utilization (Ratio)
system.membus.respLayer8.occupancy            1131372                       # Layer occupancy (ticks) (Tick)
system.membus.respLayer8.utilization              0.0                       # Layer utilization (Ratio)
system.membus.respLayer9.occupancy            1148170                       # Layer occupancy (ticks) (Tick)
system.membus.respLayer9.utilization              0.0                       # Layer utilization (Ratio)
system.scheds0.readReqs                         45006                       # Number of read requests received by the MemScheduler (Count)
system.scheds0.writeReqs                        45006                       # Number of write requests received by the MemScheduler (Count)
system.scheds0.bankConflicts                        0                       # Number of bank conflicts (Count)
system.scheds0.failedArbitrations                   0                       # Number of times an arbitration failed to send a request to MemCtrl (Count)
system.scheds0.totalArbitrations                    0                       # Total number of arbitrations over the request queues in the MemScheduler (Count)
system.scheds0.totalRQDelay                  12797646                       # Total queueing delay read requests have experienced in the MemScheduler (Count)
system.scheds0.totalWQDelay                   9249800                       # Total queueing delay write requests have experienced in the MemScheduler (Count)
system.scheds0.totalRespDelay                22463399                       # total queueing delay in the response queue experienced by the MemScheduler (Count)
system.scheds0.avgRQDelay                      284.35                       # Average queueing delay read requests have experienced in the MemScheduler (Count)
system.scheds0.avgWQDelay                      205.52                       # Average queueing delay write requests have experienced in the MemScheduler (Count)
system.scheds0.avgRespDelay                    499.12                       # Average queueing delay in the response queue experienced by the MemScheduler (Count)
system.scheds0.power_state.pwrStateResidencyTicks::UNDEFINED   1000261808                       # Cumulative time (in ticks) in various power states (Tick)
system.scheds1.readReqs                         45553                       # Number of read requests received by the MemScheduler (Count)
system.scheds1.writeReqs                        45552                       # Number of write requests received by the MemScheduler (Count)
system.scheds1.bankConflicts                        0                       # Number of bank conflicts (Count)
system.scheds1.failedArbitrations                   0                       # Number of times an arbitration failed to send a request to MemCtrl (Count)
system.scheds1.totalArbitrations                    0                       # Total number of arbitrations over the request queues in the MemScheduler (Count)
system.scheds1.totalRQDelay                  10469732                       # Total queueing delay read requests have experienced in the MemScheduler (Count)
system.scheds1.totalWQDelay                   9287000                       # Total queueing delay write requests have experienced in the MemScheduler (Count)
system.scheds1.totalRespDelay                25590799                       # total queueing delay in the response queue experienced by the MemScheduler (Count)
system.scheds1.avgRQDelay                      229.84                       # Average queueing delay read requests have experienced in the MemScheduler (Count)
system.scheds1.avgWQDelay                      203.88                       # Average queueing delay write requests have experienced in the MemScheduler (Count)
system.scheds1.avgRespDelay                    561.78                       # Average queueing delay in the response queue experienced by the MemScheduler (Count)
system.scheds1.power_state.pwrStateResidencyTicks::UNDEFINED   1000261808                       # Cumulative time (in ticks) in various power states (Tick)
system.workload.inst.arm                            0                       # number of arm instructions executed (Count)
system.workload.inst.quiesce                        0                       # number of quiesce instructions executed (Count)

---------- End Simulation Statistics   ----------
