
---------- Begin Simulation Statistics ----------
simSeconds                                   0.000100                       # Number of seconds simulated (Second)
simTicks                                     99999999                       # Number of ticks simulated (Tick)
finalTick                                    99999999                       # Number of ticks from beginning of simulation (restored from checkpoints and never reset) (Tick)
simFreq                                  1000000000000                       # The number of ticks per simulated second ((Tick/Second))
hostSeconds                                      0.09                       # Real time elapsed on the host (Second)
hostTickRate                               1162221751                       # The number of ticks simulated per host second (ticks/s) ((Tick/Second))
hostMemory                                    8498852                       # Number of bytes of host memory used (Byte)
system.clk_domain.clock                           200                       # Clock period in ticks (Tick)
system.clk_domain.voltage_domain.voltage            1                       # Voltage in Volts (Volt)
system.far_mem_ctrl0.avgPriority_writebacks::samples      1810.00                       # Average QoS priority value for accepted requests (Count)
system.far_mem_ctrl0.priorityMinLatency  0.000000317492                       # per QoS priority minimum request to response latency (Second)
system.far_mem_ctrl0.priorityMaxLatency  0.000116394686                       # per QoS priority maximum request to response latency (Second)
system.far_mem_ctrl0.numReadWriteTurnArounds            8                       # Number of turnarounds from READ to WRITE (Count)
system.far_mem_ctrl0.numWriteReadTurnArounds            8                       # Number of turnarounds from WRITE to READ (Count)
system.far_mem_ctrl0.numStayReadState            5148                       # Number of times bus staying in READ state (Count)
system.far_mem_ctrl0.numStayWriteState            125                       # Number of times bus staying in WRITE state (Count)
system.far_mem_ctrl0.readReqs                    1623                       # Number of read requests accepted (Count)
system.far_mem_ctrl0.writeReqs                    187                       # Number of write requests accepted (Count)
system.far_mem_ctrl0.readBursts                  1623                       # Number of controller read bursts, including those serviced by the write queue (Count)
system.far_mem_ctrl0.writeBursts                  187                       # Number of controller write bursts, including those merged in the write queue (Count)
system.far_mem_ctrl0.servicedByWrQ                  0                       # Number of controller read bursts serviced by the write queue (Count)
system.far_mem_ctrl0.mergedWrBursts                 0                       # Number of controller write bursts merged with an existing one (Count)
system.far_mem_ctrl0.neitherReadNorWriteReqs            0                       # Number of requests that are neither read nor write (Count)
system.far_mem_ctrl0.avgRdQLen                   4.65                       # Average read queue length when enqueuing ((Count/Tick))
system.far_mem_ctrl0.avgWrQLen                  33.77                       # Average write queue length when enqueuing ((Count/Tick))
system.far_mem_ctrl0.numRdRetry                     0                       # Number of times read queue was full causing retry (Count)
system.far_mem_ctrl0.numWrRetry                     0                       # Number of times write queue was full causing retry (Count)
system.far_mem_ctrl0.readPktSize::0                 0                       # Read request sizes (log2) (Count)
system.far_mem_ctrl0.readPktSize::1                 0                       # Read request sizes (log2) (Count)
system.far_mem_ctrl0.readPktSize::2                 0                       # Read request sizes (log2) (Count)
system.far_mem_ctrl0.readPktSize::3                 0                       # Read request sizes (log2) (Count)
system.far_mem_ctrl0.readPktSize::4                 0                       # Read request sizes (log2) (Count)
system.far_mem_ctrl0.readPktSize::5                 0                       # Read request sizes (log2) (Count)
system.far_mem_ctrl0.readPktSize::6              1623                       # Read request sizes (log2) (Count)
system.far_mem_ctrl0.writePktSize::0                0                       # Write request sizes (log2) (Count)
system.far_mem_ctrl0.writePktSize::1                0                       # Write request sizes (log2) (Count)
system.far_mem_ctrl0.writePktSize::2                0                       # Write request sizes (log2) (Count)
system.far_mem_ctrl0.writePktSize::3                0                       # Write request sizes (log2) (Count)
system.far_mem_ctrl0.writePktSize::4                0                       # Write request sizes (log2) (Count)
system.far_mem_ctrl0.writePktSize::5                0                       # Write request sizes (log2) (Count)
system.far_mem_ctrl0.writePktSize::6              187                       # Write request sizes (log2) (Count)
system.far_mem_ctrl0.rdQLenPdf::0                 158                       # What read queue length does an incoming req see (Count)
system.far_mem_ctrl0.rdQLenPdf::1                 245                       # What read queue length does an incoming req see (Count)
system.far_mem_ctrl0.rdQLenPdf::2                 271                       # What read queue length does an incoming req see (Count)
system.far_mem_ctrl0.rdQLenPdf::3                 271                       # What read queue length does an incoming req see (Count)
system.far_mem_ctrl0.rdQLenPdf::4                 244                       # What read queue length does an incoming req see (Count)
system.far_mem_ctrl0.rdQLenPdf::5                 186                       # What read queue length does an incoming req see (Count)
system.far_mem_ctrl0.rdQLenPdf::6                 126                       # What read queue length does an incoming req see (Count)
system.far_mem_ctrl0.rdQLenPdf::7                  65                       # What read queue length does an incoming req see (Count)
system.far_mem_ctrl0.rdQLenPdf::8                  34                       # What read queue length does an incoming req see (Count)
system.far_mem_ctrl0.rdQLenPdf::9                  15                       # What read queue length does an incoming req see (Count)
system.far_mem_ctrl0.rdQLenPdf::10                  5                       # What read queue length does an incoming req see (Count)
system.far_mem_ctrl0.rdQLenPdf::11                  1                       # What read queue length does an incoming req see (Count)
system.far_mem_ctrl0.rdQLenPdf::12                  1                       # What read queue length does an incoming req see (Count)
system.far_mem_ctrl0.rdQLenPdf::13                  1                       # What read queue length does an incoming req see (Count)
system.far_mem_ctrl0.rdQLenPdf::14                  0                       # What read queue length does an incoming req see (Count)
system.far_mem_ctrl0.rdQLenPdf::15                  0                       # What read queue length does an incoming req see (Count)
system.far_mem_ctrl0.rdQLenPdf::16                  0                       # What read queue length does an incoming req see (Count)
system.far_mem_ctrl0.rdQLenPdf::17                  0                       # What read queue length does an incoming req see (Count)
system.far_mem_ctrl0.rdQLenPdf::18                  0                       # What read queue length does an incoming req see (Count)
system.far_mem_ctrl0.rdQLenPdf::19                  0                       # What read queue length does an incoming req see (Count)
system.far_mem_ctrl0.rdQLenPdf::20                  0                       # What read queue length does an incoming req see (Count)
system.far_mem_ctrl0.rdQLenPdf::21                  0                       # What read queue length does an incoming req see (Count)
system.far_mem_ctrl0.rdQLenPdf::22                  0                       # What read queue length does an incoming req see (Count)
system.far_mem_ctrl0.rdQLenPdf::23                  0                       # What read queue length does an incoming req see (Count)
system.far_mem_ctrl0.rdQLenPdf::24                  0                       # What read queue length does an incoming req see (Count)
system.far_mem_ctrl0.rdQLenPdf::25                  0                       # What read queue length does an incoming req see (Count)
system.far_mem_ctrl0.rdQLenPdf::26                  0                       # What read queue length does an incoming req see (Count)
system.far_mem_ctrl0.rdQLenPdf::27                  0                       # What read queue length does an incoming req see (Count)
system.far_mem_ctrl0.rdQLenPdf::28                  0                       # What read queue length does an incoming req see (Count)
system.far_mem_ctrl0.rdQLenPdf::29                  0                       # What read queue length does an incoming req see (Count)
system.far_mem_ctrl0.rdQLenPdf::30                  0                       # What read queue length does an incoming req see (Count)
system.far_mem_ctrl0.rdQLenPdf::31                  0                       # What read queue length does an incoming req see (Count)
system.far_mem_ctrl0.rdQLenPdf::32                  0                       # What read queue length does an incoming req see (Count)
system.far_mem_ctrl0.rdQLenPdf::33                  0                       # What read queue length does an incoming req see (Count)
system.far_mem_ctrl0.rdQLenPdf::34                  0                       # What read queue length does an incoming req see (Count)
system.far_mem_ctrl0.rdQLenPdf::35                  0                       # What read queue length does an incoming req see (Count)
system.far_mem_ctrl0.rdQLenPdf::36                  0                       # What read queue length does an incoming req see (Count)
system.far_mem_ctrl0.rdQLenPdf::37                  0                       # What read queue length does an incoming req see (Count)
system.far_mem_ctrl0.rdQLenPdf::38                  0                       # What read queue length does an incoming req see (Count)
system.far_mem_ctrl0.rdQLenPdf::39                  0                       # What read queue length does an incoming req see (Count)
system.far_mem_ctrl0.rdQLenPdf::40                  0                       # What read queue length does an incoming req see (Count)
system.far_mem_ctrl0.rdQLenPdf::41                  0                       # What read queue length does an incoming req see (Count)
system.far_mem_ctrl0.rdQLenPdf::42                  0                       # What read queue length does an incoming req see (Count)
system.far_mem_ctrl0.rdQLenPdf::43                  0                       # What read queue length does an incoming req see (Count)
system.far_mem_ctrl0.rdQLenPdf::44                  0                       # What read queue length does an incoming req see (Count)
system.far_mem_ctrl0.rdQLenPdf::45                  0                       # What read queue length does an incoming req see (Count)
system.far_mem_ctrl0.rdQLenPdf::46                  0                       # What read queue length does an incoming req see (Count)
system.far_mem_ctrl0.rdQLenPdf::47                  0                       # What read queue length does an incoming req see (Count)
system.far_mem_ctrl0.rdQLenPdf::48                  0                       # What read queue length does an incoming req see (Count)
system.far_mem_ctrl0.rdQLenPdf::49                  0                       # What read queue length does an incoming req see (Count)
system.far_mem_ctrl0.rdQLenPdf::50                  0                       # What read queue length does an incoming req see (Count)
system.far_mem_ctrl0.rdQLenPdf::51                  0                       # What read queue length does an incoming req see (Count)
system.far_mem_ctrl0.rdQLenPdf::52                  0                       # What read queue length does an incoming req see (Count)
system.far_mem_ctrl0.rdQLenPdf::53                  0                       # What read queue length does an incoming req see (Count)
system.far_mem_ctrl0.rdQLenPdf::54                  0                       # What read queue length does an incoming req see (Count)
system.far_mem_ctrl0.rdQLenPdf::55                  0                       # What read queue length does an incoming req see (Count)
system.far_mem_ctrl0.rdQLenPdf::56                  0                       # What read queue length does an incoming req see (Count)
system.far_mem_ctrl0.rdQLenPdf::57                  0                       # What read queue length does an incoming req see (Count)
system.far_mem_ctrl0.rdQLenPdf::58                  0                       # What read queue length does an incoming req see (Count)
system.far_mem_ctrl0.rdQLenPdf::59                  0                       # What read queue length does an incoming req see (Count)
system.far_mem_ctrl0.rdQLenPdf::60                  0                       # What read queue length does an incoming req see (Count)
system.far_mem_ctrl0.rdQLenPdf::61                  0                       # What read queue length does an incoming req see (Count)
system.far_mem_ctrl0.rdQLenPdf::62                  0                       # What read queue length does an incoming req see (Count)
system.far_mem_ctrl0.rdQLenPdf::63                  0                       # What read queue length does an incoming req see (Count)
system.far_mem_ctrl0.rdQLenPdf::64                  0                       # What read queue length does an incoming req see (Count)
system.far_mem_ctrl0.rdQLenPdf::65                  0                       # What read queue length does an incoming req see (Count)
system.far_mem_ctrl0.rdQLenPdf::66                  0                       # What read queue length does an incoming req see (Count)
system.far_mem_ctrl0.rdQLenPdf::67                  0                       # What read queue length does an incoming req see (Count)
system.far_mem_ctrl0.rdQLenPdf::68                  0                       # What read queue length does an incoming req see (Count)
system.far_mem_ctrl0.rdQLenPdf::69                  0                       # What read queue length does an incoming req see (Count)
system.far_mem_ctrl0.rdQLenPdf::70                  0                       # What read queue length does an incoming req see (Count)
system.far_mem_ctrl0.rdQLenPdf::71                  0                       # What read queue length does an incoming req see (Count)
system.far_mem_ctrl0.rdQLenPdf::72                  0                       # What read queue length does an incoming req see (Count)
system.far_mem_ctrl0.rdQLenPdf::73                  0                       # What read queue length does an incoming req see (Count)
system.far_mem_ctrl0.rdQLenPdf::74                  0                       # What read queue length does an incoming req see (Count)
system.far_mem_ctrl0.rdQLenPdf::75                  0                       # What read queue length does an incoming req see (Count)
system.far_mem_ctrl0.rdQLenPdf::76                  0                       # What read queue length does an incoming req see (Count)
system.far_mem_ctrl0.rdQLenPdf::77                  0                       # What read queue length does an incoming req see (Count)
system.far_mem_ctrl0.rdQLenPdf::78                  0                       # What read queue length does an incoming req see (Count)
system.far_mem_ctrl0.rdQLenPdf::79                  0                       # What read queue length does an incoming req see (Count)
system.far_mem_ctrl0.rdQLenPdf::80                  0                       # What read queue length does an incoming req see (Count)
system.far_mem_ctrl0.rdQLenPdf::81                  0                       # What read queue length does an incoming req see (Count)
system.far_mem_ctrl0.rdQLenPdf::82                  0                       # What read queue length does an incoming req see (Count)
system.far_mem_ctrl0.rdQLenPdf::83                  0                       # What read queue length does an incoming req see (Count)
system.far_mem_ctrl0.rdQLenPdf::84                  0                       # What read queue length does an incoming req see (Count)
system.far_mem_ctrl0.rdQLenPdf::85                  0                       # What read queue length does an incoming req see (Count)
system.far_mem_ctrl0.rdQLenPdf::86                  0                       # What read queue length does an incoming req see (Count)
system.far_mem_ctrl0.rdQLenPdf::87                  0                       # What read queue length does an incoming req see (Count)
system.far_mem_ctrl0.rdQLenPdf::88                  0                       # What read queue length does an incoming req see (Count)
system.far_mem_ctrl0.rdQLenPdf::89                  0                       # What read queue length does an incoming req see (Count)
system.far_mem_ctrl0.rdQLenPdf::90                  0                       # What read queue length does an incoming req see (Count)
system.far_mem_ctrl0.rdQLenPdf::91                  0                       # What read queue length does an incoming req see (Count)
system.far_mem_ctrl0.rdQLenPdf::92                  0                       # What read queue length does an incoming req see (Count)
system.far_mem_ctrl0.rdQLenPdf::93                  0                       # What read queue length does an incoming req see (Count)
system.far_mem_ctrl0.rdQLenPdf::94                  0                       # What read queue length does an incoming req see (Count)
system.far_mem_ctrl0.rdQLenPdf::95                  0                       # What read queue length does an incoming req see (Count)
system.far_mem_ctrl0.rdQLenPdf::96                  0                       # What read queue length does an incoming req see (Count)
system.far_mem_ctrl0.rdQLenPdf::97                  0                       # What read queue length does an incoming req see (Count)
system.far_mem_ctrl0.rdQLenPdf::98                  0                       # What read queue length does an incoming req see (Count)
system.far_mem_ctrl0.rdQLenPdf::99                  0                       # What read queue length does an incoming req see (Count)
system.far_mem_ctrl0.rdQLenPdf::100                 0                       # What read queue length does an incoming req see (Count)
system.far_mem_ctrl0.rdQLenPdf::101                 0                       # What read queue length does an incoming req see (Count)
system.far_mem_ctrl0.rdQLenPdf::102                 0                       # What read queue length does an incoming req see (Count)
system.far_mem_ctrl0.rdQLenPdf::103                 0                       # What read queue length does an incoming req see (Count)
system.far_mem_ctrl0.rdQLenPdf::104                 0                       # What read queue length does an incoming req see (Count)
system.far_mem_ctrl0.rdQLenPdf::105                 0                       # What read queue length does an incoming req see (Count)
system.far_mem_ctrl0.rdQLenPdf::106                 0                       # What read queue length does an incoming req see (Count)
system.far_mem_ctrl0.rdQLenPdf::107                 0                       # What read queue length does an incoming req see (Count)
system.far_mem_ctrl0.rdQLenPdf::108                 0                       # What read queue length does an incoming req see (Count)
system.far_mem_ctrl0.rdQLenPdf::109                 0                       # What read queue length does an incoming req see (Count)
system.far_mem_ctrl0.rdQLenPdf::110                 0                       # What read queue length does an incoming req see (Count)
system.far_mem_ctrl0.rdQLenPdf::111                 0                       # What read queue length does an incoming req see (Count)
system.far_mem_ctrl0.rdQLenPdf::112                 0                       # What read queue length does an incoming req see (Count)
system.far_mem_ctrl0.rdQLenPdf::113                 0                       # What read queue length does an incoming req see (Count)
system.far_mem_ctrl0.rdQLenPdf::114                 0                       # What read queue length does an incoming req see (Count)
system.far_mem_ctrl0.rdQLenPdf::115                 0                       # What read queue length does an incoming req see (Count)
system.far_mem_ctrl0.rdQLenPdf::116                 0                       # What read queue length does an incoming req see (Count)
system.far_mem_ctrl0.rdQLenPdf::117                 0                       # What read queue length does an incoming req see (Count)
system.far_mem_ctrl0.rdQLenPdf::118                 0                       # What read queue length does an incoming req see (Count)
system.far_mem_ctrl0.rdQLenPdf::119                 0                       # What read queue length does an incoming req see (Count)
system.far_mem_ctrl0.rdQLenPdf::120                 0                       # What read queue length does an incoming req see (Count)
system.far_mem_ctrl0.rdQLenPdf::121                 0                       # What read queue length does an incoming req see (Count)
system.far_mem_ctrl0.rdQLenPdf::122                 0                       # What read queue length does an incoming req see (Count)
system.far_mem_ctrl0.rdQLenPdf::123                 0                       # What read queue length does an incoming req see (Count)
system.far_mem_ctrl0.rdQLenPdf::124                 0                       # What read queue length does an incoming req see (Count)
system.far_mem_ctrl0.rdQLenPdf::125                 0                       # What read queue length does an incoming req see (Count)
system.far_mem_ctrl0.rdQLenPdf::126                 0                       # What read queue length does an incoming req see (Count)
system.far_mem_ctrl0.rdQLenPdf::127                 0                       # What read queue length does an incoming req see (Count)
system.far_mem_ctrl0.wrQLenPdf::0                   1                       # What write queue length does an incoming req see (Count)
system.far_mem_ctrl0.wrQLenPdf::1                   1                       # What write queue length does an incoming req see (Count)
system.far_mem_ctrl0.wrQLenPdf::2                   1                       # What write queue length does an incoming req see (Count)
system.far_mem_ctrl0.wrQLenPdf::3                   1                       # What write queue length does an incoming req see (Count)
system.far_mem_ctrl0.wrQLenPdf::4                   1                       # What write queue length does an incoming req see (Count)
system.far_mem_ctrl0.wrQLenPdf::5                   1                       # What write queue length does an incoming req see (Count)
system.far_mem_ctrl0.wrQLenPdf::6                   1                       # What write queue length does an incoming req see (Count)
system.far_mem_ctrl0.wrQLenPdf::7                   1                       # What write queue length does an incoming req see (Count)
system.far_mem_ctrl0.wrQLenPdf::8                   1                       # What write queue length does an incoming req see (Count)
system.far_mem_ctrl0.wrQLenPdf::9                   1                       # What write queue length does an incoming req see (Count)
system.far_mem_ctrl0.wrQLenPdf::10                  1                       # What write queue length does an incoming req see (Count)
system.far_mem_ctrl0.wrQLenPdf::11                  1                       # What write queue length does an incoming req see (Count)
system.far_mem_ctrl0.wrQLenPdf::12                  1                       # What write queue length does an incoming req see (Count)
system.far_mem_ctrl0.wrQLenPdf::13                  1                       # What write queue length does an incoming req see (Count)
system.far_mem_ctrl0.wrQLenPdf::14                  1                       # What write queue length does an incoming req see (Count)
system.far_mem_ctrl0.wrQLenPdf::15                  1                       # What write queue length does an incoming req see (Count)
system.far_mem_ctrl0.wrQLenPdf::16                  1                       # What write queue length does an incoming req see (Count)
system.far_mem_ctrl0.wrQLenPdf::17                  1                       # What write queue length does an incoming req see (Count)
system.far_mem_ctrl0.wrQLenPdf::18                  1                       # What write queue length does an incoming req see (Count)
system.far_mem_ctrl0.wrQLenPdf::19                  1                       # What write queue length does an incoming req see (Count)
system.far_mem_ctrl0.wrQLenPdf::20                  1                       # What write queue length does an incoming req see (Count)
system.far_mem_ctrl0.wrQLenPdf::21                  1                       # What write queue length does an incoming req see (Count)
system.far_mem_ctrl0.wrQLenPdf::22                  1                       # What write queue length does an incoming req see (Count)
system.far_mem_ctrl0.wrQLenPdf::23                  1                       # What write queue length does an incoming req see (Count)
system.far_mem_ctrl0.wrQLenPdf::24                  1                       # What write queue length does an incoming req see (Count)
system.far_mem_ctrl0.wrQLenPdf::25                  1                       # What write queue length does an incoming req see (Count)
system.far_mem_ctrl0.wrQLenPdf::26                  1                       # What write queue length does an incoming req see (Count)
system.far_mem_ctrl0.wrQLenPdf::27                  1                       # What write queue length does an incoming req see (Count)
system.far_mem_ctrl0.wrQLenPdf::28                  1                       # What write queue length does an incoming req see (Count)
system.far_mem_ctrl0.wrQLenPdf::29                  1                       # What write queue length does an incoming req see (Count)
system.far_mem_ctrl0.wrQLenPdf::30                  1                       # What write queue length does an incoming req see (Count)
system.far_mem_ctrl0.wrQLenPdf::31                  1                       # What write queue length does an incoming req see (Count)
system.far_mem_ctrl0.wrQLenPdf::32                  1                       # What write queue length does an incoming req see (Count)
system.far_mem_ctrl0.wrQLenPdf::33                  1                       # What write queue length does an incoming req see (Count)
system.far_mem_ctrl0.wrQLenPdf::34                  1                       # What write queue length does an incoming req see (Count)
system.far_mem_ctrl0.wrQLenPdf::35                  1                       # What write queue length does an incoming req see (Count)
system.far_mem_ctrl0.wrQLenPdf::36                  1                       # What write queue length does an incoming req see (Count)
system.far_mem_ctrl0.wrQLenPdf::37                  1                       # What write queue length does an incoming req see (Count)
system.far_mem_ctrl0.wrQLenPdf::38                  1                       # What write queue length does an incoming req see (Count)
system.far_mem_ctrl0.wrQLenPdf::39                  1                       # What write queue length does an incoming req see (Count)
system.far_mem_ctrl0.wrQLenPdf::40                  1                       # What write queue length does an incoming req see (Count)
system.far_mem_ctrl0.wrQLenPdf::41                  1                       # What write queue length does an incoming req see (Count)
system.far_mem_ctrl0.wrQLenPdf::42                  1                       # What write queue length does an incoming req see (Count)
system.far_mem_ctrl0.wrQLenPdf::43                  1                       # What write queue length does an incoming req see (Count)
system.far_mem_ctrl0.wrQLenPdf::44                  1                       # What write queue length does an incoming req see (Count)
system.far_mem_ctrl0.wrQLenPdf::45                  1                       # What write queue length does an incoming req see (Count)
system.far_mem_ctrl0.wrQLenPdf::46                  1                       # What write queue length does an incoming req see (Count)
system.far_mem_ctrl0.wrQLenPdf::47                  3                       # What write queue length does an incoming req see (Count)
system.far_mem_ctrl0.wrQLenPdf::48                  4                       # What write queue length does an incoming req see (Count)
system.far_mem_ctrl0.wrQLenPdf::49                  4                       # What write queue length does an incoming req see (Count)
system.far_mem_ctrl0.wrQLenPdf::50                  8                       # What write queue length does an incoming req see (Count)
system.far_mem_ctrl0.wrQLenPdf::51                  9                       # What write queue length does an incoming req see (Count)
system.far_mem_ctrl0.wrQLenPdf::52                  9                       # What write queue length does an incoming req see (Count)
system.far_mem_ctrl0.wrQLenPdf::53                 10                       # What write queue length does an incoming req see (Count)
system.far_mem_ctrl0.wrQLenPdf::54                  8                       # What write queue length does an incoming req see (Count)
system.far_mem_ctrl0.wrQLenPdf::55                  8                       # What write queue length does an incoming req see (Count)
system.far_mem_ctrl0.wrQLenPdf::56                  8                       # What write queue length does an incoming req see (Count)
system.far_mem_ctrl0.wrQLenPdf::57                  9                       # What write queue length does an incoming req see (Count)
system.far_mem_ctrl0.wrQLenPdf::58                  8                       # What write queue length does an incoming req see (Count)
system.far_mem_ctrl0.wrQLenPdf::59                  8                       # What write queue length does an incoming req see (Count)
system.far_mem_ctrl0.wrQLenPdf::60                  8                       # What write queue length does an incoming req see (Count)
system.far_mem_ctrl0.wrQLenPdf::61                  8                       # What write queue length does an incoming req see (Count)
system.far_mem_ctrl0.wrQLenPdf::62                  8                       # What write queue length does an incoming req see (Count)
system.far_mem_ctrl0.wrQLenPdf::63                  8                       # What write queue length does an incoming req see (Count)
system.far_mem_ctrl0.wrQLenPdf::64                  8                       # What write queue length does an incoming req see (Count)
system.far_mem_ctrl0.wrQLenPdf::65                  3                       # What write queue length does an incoming req see (Count)
system.far_mem_ctrl0.wrQLenPdf::66                  1                       # What write queue length does an incoming req see (Count)
system.far_mem_ctrl0.wrQLenPdf::67                  0                       # What write queue length does an incoming req see (Count)
system.far_mem_ctrl0.wrQLenPdf::68                  0                       # What write queue length does an incoming req see (Count)
system.far_mem_ctrl0.wrQLenPdf::69                  0                       # What write queue length does an incoming req see (Count)
system.far_mem_ctrl0.wrQLenPdf::70                  0                       # What write queue length does an incoming req see (Count)
system.far_mem_ctrl0.wrQLenPdf::71                  0                       # What write queue length does an incoming req see (Count)
system.far_mem_ctrl0.wrQLenPdf::72                  0                       # What write queue length does an incoming req see (Count)
system.far_mem_ctrl0.wrQLenPdf::73                  0                       # What write queue length does an incoming req see (Count)
system.far_mem_ctrl0.wrQLenPdf::74                  0                       # What write queue length does an incoming req see (Count)
system.far_mem_ctrl0.wrQLenPdf::75                  0                       # What write queue length does an incoming req see (Count)
system.far_mem_ctrl0.wrQLenPdf::76                  0                       # What write queue length does an incoming req see (Count)
system.far_mem_ctrl0.wrQLenPdf::77                  0                       # What write queue length does an incoming req see (Count)
system.far_mem_ctrl0.wrQLenPdf::78                  0                       # What write queue length does an incoming req see (Count)
system.far_mem_ctrl0.wrQLenPdf::79                  0                       # What write queue length does an incoming req see (Count)
system.far_mem_ctrl0.wrQLenPdf::80                  0                       # What write queue length does an incoming req see (Count)
system.far_mem_ctrl0.wrQLenPdf::81                  0                       # What write queue length does an incoming req see (Count)
system.far_mem_ctrl0.wrQLenPdf::82                  0                       # What write queue length does an incoming req see (Count)
system.far_mem_ctrl0.wrQLenPdf::83                  0                       # What write queue length does an incoming req see (Count)
system.far_mem_ctrl0.wrQLenPdf::84                  0                       # What write queue length does an incoming req see (Count)
system.far_mem_ctrl0.wrQLenPdf::85                  0                       # What write queue length does an incoming req see (Count)
system.far_mem_ctrl0.wrQLenPdf::86                  0                       # What write queue length does an incoming req see (Count)
system.far_mem_ctrl0.wrQLenPdf::87                  0                       # What write queue length does an incoming req see (Count)
system.far_mem_ctrl0.wrQLenPdf::88                  0                       # What write queue length does an incoming req see (Count)
system.far_mem_ctrl0.wrQLenPdf::89                  0                       # What write queue length does an incoming req see (Count)
system.far_mem_ctrl0.wrQLenPdf::90                  0                       # What write queue length does an incoming req see (Count)
system.far_mem_ctrl0.wrQLenPdf::91                  0                       # What write queue length does an incoming req see (Count)
system.far_mem_ctrl0.wrQLenPdf::92                  0                       # What write queue length does an incoming req see (Count)
system.far_mem_ctrl0.wrQLenPdf::93                  0                       # What write queue length does an incoming req see (Count)
system.far_mem_ctrl0.wrQLenPdf::94                  0                       # What write queue length does an incoming req see (Count)
system.far_mem_ctrl0.wrQLenPdf::95                  0                       # What write queue length does an incoming req see (Count)
system.far_mem_ctrl0.wrQLenPdf::96                  0                       # What write queue length does an incoming req see (Count)
system.far_mem_ctrl0.wrQLenPdf::97                  0                       # What write queue length does an incoming req see (Count)
system.far_mem_ctrl0.wrQLenPdf::98                  0                       # What write queue length does an incoming req see (Count)
system.far_mem_ctrl0.wrQLenPdf::99                  0                       # What write queue length does an incoming req see (Count)
system.far_mem_ctrl0.wrQLenPdf::100                 0                       # What write queue length does an incoming req see (Count)
system.far_mem_ctrl0.wrQLenPdf::101                 0                       # What write queue length does an incoming req see (Count)
system.far_mem_ctrl0.wrQLenPdf::102                 0                       # What write queue length does an incoming req see (Count)
system.far_mem_ctrl0.wrQLenPdf::103                 0                       # What write queue length does an incoming req see (Count)
system.far_mem_ctrl0.wrQLenPdf::104                 0                       # What write queue length does an incoming req see (Count)
system.far_mem_ctrl0.wrQLenPdf::105                 0                       # What write queue length does an incoming req see (Count)
system.far_mem_ctrl0.wrQLenPdf::106                 0                       # What write queue length does an incoming req see (Count)
system.far_mem_ctrl0.wrQLenPdf::107                 0                       # What write queue length does an incoming req see (Count)
system.far_mem_ctrl0.wrQLenPdf::108                 0                       # What write queue length does an incoming req see (Count)
system.far_mem_ctrl0.wrQLenPdf::109                 0                       # What write queue length does an incoming req see (Count)
system.far_mem_ctrl0.wrQLenPdf::110                 0                       # What write queue length does an incoming req see (Count)
system.far_mem_ctrl0.wrQLenPdf::111                 0                       # What write queue length does an incoming req see (Count)
system.far_mem_ctrl0.wrQLenPdf::112                 0                       # What write queue length does an incoming req see (Count)
system.far_mem_ctrl0.wrQLenPdf::113                 0                       # What write queue length does an incoming req see (Count)
system.far_mem_ctrl0.wrQLenPdf::114                 0                       # What write queue length does an incoming req see (Count)
system.far_mem_ctrl0.wrQLenPdf::115                 0                       # What write queue length does an incoming req see (Count)
system.far_mem_ctrl0.wrQLenPdf::116                 0                       # What write queue length does an incoming req see (Count)
system.far_mem_ctrl0.wrQLenPdf::117                 0                       # What write queue length does an incoming req see (Count)
system.far_mem_ctrl0.wrQLenPdf::118                 0                       # What write queue length does an incoming req see (Count)
system.far_mem_ctrl0.wrQLenPdf::119                 0                       # What write queue length does an incoming req see (Count)
system.far_mem_ctrl0.wrQLenPdf::120                 0                       # What write queue length does an incoming req see (Count)
system.far_mem_ctrl0.wrQLenPdf::121                 0                       # What write queue length does an incoming req see (Count)
system.far_mem_ctrl0.wrQLenPdf::122                 0                       # What write queue length does an incoming req see (Count)
system.far_mem_ctrl0.wrQLenPdf::123                 0                       # What write queue length does an incoming req see (Count)
system.far_mem_ctrl0.wrQLenPdf::124                 0                       # What write queue length does an incoming req see (Count)
system.far_mem_ctrl0.wrQLenPdf::125                 0                       # What write queue length does an incoming req see (Count)
system.far_mem_ctrl0.wrQLenPdf::126                 0                       # What write queue length does an incoming req see (Count)
system.far_mem_ctrl0.wrQLenPdf::127                 0                       # What write queue length does an incoming req see (Count)
system.far_mem_ctrl0.rdPerTurnAround::samples            8                       # Reads before turning the bus around for writes (Count)
system.far_mem_ctrl0.rdPerTurnAround::mean   202.125000                       # Reads before turning the bus around for writes (Count)
system.far_mem_ctrl0.rdPerTurnAround::gmean   109.690280                       # Reads before turning the bus around for writes (Count)
system.far_mem_ctrl0.rdPerTurnAround::stdev   334.532696                       # Reads before turning the bus around for writes (Count)
system.far_mem_ctrl0.rdPerTurnAround::48-63            3     37.50%     37.50% # Reads before turning the bus around for writes (Count)
system.far_mem_ctrl0.rdPerTurnAround::64-79            1     12.50%     50.00% # Reads before turning the bus around for writes (Count)
system.far_mem_ctrl0.rdPerTurnAround::96-111            2     25.00%     75.00% # Reads before turning the bus around for writes (Count)
system.far_mem_ctrl0.rdPerTurnAround::128-143            1     12.50%     87.50% # Reads before turning the bus around for writes (Count)
system.far_mem_ctrl0.rdPerTurnAround::1024-1039            1     12.50%    100.00% # Reads before turning the bus around for writes (Count)
system.far_mem_ctrl0.rdPerTurnAround::total            8                       # Reads before turning the bus around for writes (Count)
system.far_mem_ctrl0.wrPerTurnAround::samples            8                       # Writes before turning the bus around for reads (Count)
system.far_mem_ctrl0.wrPerTurnAround::mean    16.625000                       # Writes before turning the bus around for reads (Count)
system.far_mem_ctrl0.wrPerTurnAround::gmean    16.603484                       # Writes before turning the bus around for reads (Count)
system.far_mem_ctrl0.wrPerTurnAround::stdev     0.916125                       # Writes before turning the bus around for reads (Count)
system.far_mem_ctrl0.wrPerTurnAround::16            5     62.50%     62.50% # Writes before turning the bus around for reads (Count)
system.far_mem_ctrl0.wrPerTurnAround::17            1     12.50%     75.00% # Writes before turning the bus around for reads (Count)
system.far_mem_ctrl0.wrPerTurnAround::18            2     25.00%    100.00% # Writes before turning the bus around for reads (Count)
system.far_mem_ctrl0.wrPerTurnAround::total            8                       # Writes before turning the bus around for reads (Count)
system.far_mem_ctrl0.bytesReadWrQ                   0                       # Total number of bytes read from write queue (Byte)
system.far_mem_ctrl0.bytesReadSys              103872                       # Total read bytes from the system interface side (Byte)
system.far_mem_ctrl0.bytesWrittenSys            11968                       # Total written bytes from the system interface side (Byte)
system.far_mem_ctrl0.avgRdBWSys          1038720010.38720012                       # Average system read bandwidth in Byte/s ((Byte/Second))
system.far_mem_ctrl0.avgWrBWSys          119680001.19680002                       # Average system write bandwidth in Byte/s ((Byte/Second))
system.far_mem_ctrl0.totGap                  99914284                       # Total gap between requests (Tick)
system.far_mem_ctrl0.avgGap                  55201.26                       # Average gap between requests ((Tick/Count))
system.far_mem_ctrl0.requestorReadBytes::writebacks       103488                       # Per-requestor bytes read from memory (Byte)
system.far_mem_ctrl0.requestorWriteBytes::writebacks         8512                       # Per-requestor bytes write to memory (Byte)
system.far_mem_ctrl0.requestorReadRate::writebacks 1034880010.348800182343                       # Per-requestor bytes read from memory rate ((Byte/Second))
system.far_mem_ctrl0.requestorWriteRate::writebacks 85120000.851200014353                       # Per-requestor bytes write to memory rate ((Byte/Second))
system.far_mem_ctrl0.requestorReadAccesses::writebacks         1623                       # Per-requestor read serviced memory accesses (Count)
system.far_mem_ctrl0.requestorWriteAccesses::writebacks          187                       # Per-requestor write serviced memory accesses (Count)
system.far_mem_ctrl0.requestorReadTotalLat::writebacks    324737292                       # Per-requestor read total memory access latency (Tick)
system.far_mem_ctrl0.requestorWriteTotalLat::writebacks   2968603080                       # Per-requestor write total memory access latency (Tick)
system.far_mem_ctrl0.requestorReadAvgLat::writebacks    200084.59                       # Per-requestor read average memory access latency ((Tick/Count))
system.far_mem_ctrl0.requestorWriteAvgLat::writebacks  15874882.78                       # Per-requestor write average memory access latency ((Tick/Count))
system.far_mem_ctrl0.dram.bytesRead::writebacks       103488                       # Number of bytes read from this memory (Byte)
system.far_mem_ctrl0.dram.bytesRead::total       103488                       # Number of bytes read from this memory (Byte)
system.far_mem_ctrl0.dram.bytesWritten::writebacks        11968                       # Number of bytes written to this memory (Byte)
system.far_mem_ctrl0.dram.bytesWritten::total        11968                       # Number of bytes written to this memory (Byte)
system.far_mem_ctrl0.dram.numReads::writebacks         1617                       # Number of read requests responded to by this memory (Count)
system.far_mem_ctrl0.dram.numReads::total         1617                       # Number of read requests responded to by this memory (Count)
system.far_mem_ctrl0.dram.numWrites::writebacks          187                       # Number of write requests responded to by this memory (Count)
system.far_mem_ctrl0.dram.numWrites::total          187                       # Number of write requests responded to by this memory (Count)
system.far_mem_ctrl0.dram.bwRead::writebacks   1034880010                       # Total read bandwidth from this memory ((Byte/Second))
system.far_mem_ctrl0.dram.bwRead::total    1034880010                       # Total read bandwidth from this memory ((Byte/Second))
system.far_mem_ctrl0.dram.bwWrite::writebacks    119680001                       # Write bandwidth from this memory ((Byte/Second))
system.far_mem_ctrl0.dram.bwWrite::total    119680001                       # Write bandwidth from this memory ((Byte/Second))
system.far_mem_ctrl0.dram.bwTotal::writebacks   1154560012                       # Total bandwidth to/from this memory ((Byte/Second))
system.far_mem_ctrl0.dram.bwTotal::total   1154560012                       # Total bandwidth to/from this memory ((Byte/Second))
system.far_mem_ctrl0.dram.readBursts             1617                       # Number of NVM read bursts (Count)
system.far_mem_ctrl0.dram.writeBursts             133                       # Number of NVM write bursts (Count)
system.far_mem_ctrl0.dram.perBankRdBursts::0           99                       # Per bank write bursts (Count)
system.far_mem_ctrl0.dram.perBankRdBursts::1          103                       # Per bank write bursts (Count)
system.far_mem_ctrl0.dram.perBankRdBursts::2          100                       # Per bank write bursts (Count)
system.far_mem_ctrl0.dram.perBankRdBursts::3           95                       # Per bank write bursts (Count)
system.far_mem_ctrl0.dram.perBankRdBursts::4          102                       # Per bank write bursts (Count)
system.far_mem_ctrl0.dram.perBankRdBursts::5          103                       # Per bank write bursts (Count)
system.far_mem_ctrl0.dram.perBankRdBursts::6          102                       # Per bank write bursts (Count)
system.far_mem_ctrl0.dram.perBankRdBursts::7           82                       # Per bank write bursts (Count)
system.far_mem_ctrl0.dram.perBankRdBursts::8          108                       # Per bank write bursts (Count)
system.far_mem_ctrl0.dram.perBankRdBursts::9          118                       # Per bank write bursts (Count)
system.far_mem_ctrl0.dram.perBankRdBursts::10          104                       # Per bank write bursts (Count)
system.far_mem_ctrl0.dram.perBankRdBursts::11           91                       # Per bank write bursts (Count)
system.far_mem_ctrl0.dram.perBankRdBursts::12          108                       # Per bank write bursts (Count)
system.far_mem_ctrl0.dram.perBankRdBursts::13          103                       # Per bank write bursts (Count)
system.far_mem_ctrl0.dram.perBankRdBursts::14          101                       # Per bank write bursts (Count)
system.far_mem_ctrl0.dram.perBankRdBursts::15           98                       # Per bank write bursts (Count)
system.far_mem_ctrl0.dram.perBankWrBursts::0            9                       # Per bank write bursts (Count)
system.far_mem_ctrl0.dram.perBankWrBursts::1            8                       # Per bank write bursts (Count)
system.far_mem_ctrl0.dram.perBankWrBursts::2           11                       # Per bank write bursts (Count)
system.far_mem_ctrl0.dram.perBankWrBursts::3            6                       # Per bank write bursts (Count)
system.far_mem_ctrl0.dram.perBankWrBursts::4           12                       # Per bank write bursts (Count)
system.far_mem_ctrl0.dram.perBankWrBursts::5           10                       # Per bank write bursts (Count)
system.far_mem_ctrl0.dram.perBankWrBursts::6            4                       # Per bank write bursts (Count)
system.far_mem_ctrl0.dram.perBankWrBursts::7            5                       # Per bank write bursts (Count)
system.far_mem_ctrl0.dram.perBankWrBursts::8           12                       # Per bank write bursts (Count)
system.far_mem_ctrl0.dram.perBankWrBursts::9            9                       # Per bank write bursts (Count)
system.far_mem_ctrl0.dram.perBankWrBursts::10            9                       # Per bank write bursts (Count)
system.far_mem_ctrl0.dram.perBankWrBursts::11           12                       # Per bank write bursts (Count)
system.far_mem_ctrl0.dram.perBankWrBursts::12            9                       # Per bank write bursts (Count)
system.far_mem_ctrl0.dram.perBankWrBursts::13           12                       # Per bank write bursts (Count)
system.far_mem_ctrl0.dram.perBankWrBursts::14            2                       # Per bank write bursts (Count)
system.far_mem_ctrl0.dram.perBankWrBursts::15            3                       # Per bank write bursts (Count)
system.far_mem_ctrl0.dram.totQLat           296452728                       # Total ticks spent queuing (Tick)
system.far_mem_ctrl0.dram.totBusLat           5387844                       # Total ticks spent in databus transfers (Tick)
system.far_mem_ctrl0.dram.totMemAccLat      324737292                       # Total ticks spent from burst creation until serviced by the NVM (Tick)
system.far_mem_ctrl0.dram.avgQLat           183335.02                       # Average queueing delay per NVM burst ((Tick/Count))
system.far_mem_ctrl0.dram.avgBusLat           3332.00                       # Average bus latency per NVM burst ((Tick/Count))
system.far_mem_ctrl0.dram.avgMemAccLat      200827.02                       # Average memory access latency per NVM burst ((Tick/Count))
system.far_mem_ctrl0.dram.avgRdBW             1034.88                       # Average DRAM read bandwidth in MiBytes/s ((Byte/Second))
system.far_mem_ctrl0.dram.avgWrBW               85.12                       # Average DRAM write bandwidth in MiBytes/s ((Byte/Second))
system.far_mem_ctrl0.dram.peakBW             19207.00                       # Theoretical peak bandwidth in MiByte/s ((Byte/Second))
system.far_mem_ctrl0.dram.busUtil                5.83                       # NVM Data bus utilization in percentage (Ratio)
system.far_mem_ctrl0.dram.busUtilRead            5.39                       # NVM Data bus read utilization in percentage (Ratio)
system.far_mem_ctrl0.dram.busUtilWrite           0.44                       # NVM Data bus write utilization in percentage (Ratio)
system.far_mem_ctrl0.dram.pendingReads::samples         1617                       # Reads issued to NVM for which data has not been transferred (Count)
system.far_mem_ctrl0.dram.pendingReads::mean     3.032158                       # Reads issued to NVM for which data has not been transferred (Count)
system.far_mem_ctrl0.dram.pendingReads::stdev     2.079534                       # Reads issued to NVM for which data has not been transferred (Count)
system.far_mem_ctrl0.dram.pendingReads::0          174     10.76%     10.76% # Reads issued to NVM for which data has not been transferred (Count)
system.far_mem_ctrl0.dram.pendingReads::1          252     15.58%     26.35% # Reads issued to NVM for which data has not been transferred (Count)
system.far_mem_ctrl0.dram.pendingReads::2          287     17.75%     44.09% # Reads issued to NVM for which data has not been transferred (Count)
system.far_mem_ctrl0.dram.pendingReads::3          281     17.38%     61.47% # Reads issued to NVM for which data has not been transferred (Count)
system.far_mem_ctrl0.dram.pendingReads::4          246     15.21%     76.69% # Reads issued to NVM for which data has not been transferred (Count)
system.far_mem_ctrl0.dram.pendingReads::5          173     10.70%     87.38% # Reads issued to NVM for which data has not been transferred (Count)
system.far_mem_ctrl0.dram.pendingReads::6          114      7.05%     94.43% # Reads issued to NVM for which data has not been transferred (Count)
system.far_mem_ctrl0.dram.pendingReads::7           45      2.78%     97.22% # Reads issued to NVM for which data has not been transferred (Count)
system.far_mem_ctrl0.dram.pendingReads::8           29      1.79%     99.01% # Reads issued to NVM for which data has not been transferred (Count)
system.far_mem_ctrl0.dram.pendingReads::9           11      0.68%     99.69% # Reads issued to NVM for which data has not been transferred (Count)
system.far_mem_ctrl0.dram.pendingReads::10            2      0.12%     99.81% # Reads issued to NVM for which data has not been transferred (Count)
system.far_mem_ctrl0.dram.pendingReads::11            1      0.06%     99.88% # Reads issued to NVM for which data has not been transferred (Count)
system.far_mem_ctrl0.dram.pendingReads::12            2      0.12%    100.00% # Reads issued to NVM for which data has not been transferred (Count)
system.far_mem_ctrl0.dram.pendingReads::total         1617                       # Reads issued to NVM for which data has not been transferred (Count)
system.far_mem_ctrl0.dram.pendingWrites::samples          117                       # Number of outstanding writes to NVM (Count)
system.far_mem_ctrl0.dram.pendingWrites::mean     8.880342                       # Number of outstanding writes to NVM (Count)
system.far_mem_ctrl0.dram.pendingWrites::gmean     7.078932                       # Number of outstanding writes to NVM (Count)
system.far_mem_ctrl0.dram.pendingWrites::stdev     4.878104                       # Number of outstanding writes to NVM (Count)
system.far_mem_ctrl0.dram.pendingWrites::1            7      5.98%      5.98% # Number of outstanding writes to NVM (Count)
system.far_mem_ctrl0.dram.pendingWrites::2            7      5.98%     11.97% # Number of outstanding writes to NVM (Count)
system.far_mem_ctrl0.dram.pendingWrites::3            7      5.98%     17.95% # Number of outstanding writes to NVM (Count)
system.far_mem_ctrl0.dram.pendingWrites::4            7      5.98%     23.93% # Number of outstanding writes to NVM (Count)
system.far_mem_ctrl0.dram.pendingWrites::5            7      5.98%     29.91% # Number of outstanding writes to NVM (Count)
system.far_mem_ctrl0.dram.pendingWrites::6            7      5.98%     35.90% # Number of outstanding writes to NVM (Count)
system.far_mem_ctrl0.dram.pendingWrites::7            7      5.98%     41.88% # Number of outstanding writes to NVM (Count)
system.far_mem_ctrl0.dram.pendingWrites::8            7      5.98%     47.86% # Number of outstanding writes to NVM (Count)
system.far_mem_ctrl0.dram.pendingWrites::9            7      5.98%     53.85% # Number of outstanding writes to NVM (Count)
system.far_mem_ctrl0.dram.pendingWrites::10            7      5.98%     59.83% # Number of outstanding writes to NVM (Count)
system.far_mem_ctrl0.dram.pendingWrites::11            7      5.98%     65.81% # Number of outstanding writes to NVM (Count)
system.far_mem_ctrl0.dram.pendingWrites::12            7      5.98%     71.79% # Number of outstanding writes to NVM (Count)
system.far_mem_ctrl0.dram.pendingWrites::13            7      5.98%     77.78% # Number of outstanding writes to NVM (Count)
system.far_mem_ctrl0.dram.pendingWrites::14            7      5.98%     83.76% # Number of outstanding writes to NVM (Count)
system.far_mem_ctrl0.dram.pendingWrites::15            7      5.98%     89.74% # Number of outstanding writes to NVM (Count)
system.far_mem_ctrl0.dram.pendingWrites::16            7      5.98%     95.73% # Number of outstanding writes to NVM (Count)
system.far_mem_ctrl0.dram.pendingWrites::17            3      2.56%     98.29% # Number of outstanding writes to NVM (Count)
system.far_mem_ctrl0.dram.pendingWrites::18            2      1.71%    100.00% # Number of outstanding writes to NVM (Count)
system.far_mem_ctrl0.dram.pendingWrites::total          117                       # Number of outstanding writes to NVM (Count)
system.far_mem_ctrl0.dram.bytesPerBank::samples         1756                       # Bytes read within a bank before loading new bank (Byte)
system.far_mem_ctrl0.dram.bytesPerBank::mean           64                       # Bytes read within a bank before loading new bank (Byte)
system.far_mem_ctrl0.dram.bytesPerBank::gmean    64.000000                       # Bytes read within a bank before loading new bank (Byte)
system.far_mem_ctrl0.dram.bytesPerBank::64         1756    100.00%    100.00% # Bytes read within a bank before loading new bank (Byte)
system.far_mem_ctrl0.dram.bytesPerBank::total         1756                       # Bytes read within a bank before loading new bank (Byte)
system.far_mem_ctrl0.dram.power_state.pwrStateResidencyTicks::UNDEFINED     99999999                       # Cumulative time (in ticks) in various power states (Tick)
system.far_mem_ctrl0.power_state.pwrStateResidencyTicks::UNDEFINED     99999999                       # Cumulative time (in ticks) in various power states (Tick)
system.far_mem_ctrl1.avgPriority_writebacks::samples      1822.00                       # Average QoS priority value for accepted requests (Count)
system.far_mem_ctrl1.priorityMinLatency  0.000000317492                       # per QoS priority minimum request to response latency (Second)
system.far_mem_ctrl1.priorityMaxLatency  0.000101226178                       # per QoS priority maximum request to response latency (Second)
system.far_mem_ctrl1.numReadWriteTurnArounds            6                       # Number of turnarounds from READ to WRITE (Count)
system.far_mem_ctrl1.numWriteReadTurnArounds            6                       # Number of turnarounds from WRITE to READ (Count)
system.far_mem_ctrl1.numStayReadState            5244                       # Number of times bus staying in READ state (Count)
system.far_mem_ctrl1.numStayWriteState             97                       # Number of times bus staying in WRITE state (Count)
system.far_mem_ctrl1.readReqs                    1665                       # Number of read requests accepted (Count)
system.far_mem_ctrl1.writeReqs                    157                       # Number of write requests accepted (Count)
system.far_mem_ctrl1.readBursts                  1665                       # Number of controller read bursts, including those serviced by the write queue (Count)
system.far_mem_ctrl1.writeBursts                  157                       # Number of controller write bursts, including those merged in the write queue (Count)
system.far_mem_ctrl1.servicedByWrQ                  0                       # Number of controller read bursts serviced by the write queue (Count)
system.far_mem_ctrl1.mergedWrBursts                 0                       # Number of controller write bursts merged with an existing one (Count)
system.far_mem_ctrl1.neitherReadNorWriteReqs            0                       # Number of requests that are neither read nor write (Count)
system.far_mem_ctrl1.avgRdQLen                   5.02                       # Average read queue length when enqueuing ((Count/Tick))
system.far_mem_ctrl1.avgWrQLen                  36.94                       # Average write queue length when enqueuing ((Count/Tick))
system.far_mem_ctrl1.numRdRetry                     0                       # Number of times read queue was full causing retry (Count)
system.far_mem_ctrl1.numWrRetry                     0                       # Number of times write queue was full causing retry (Count)
system.far_mem_ctrl1.readPktSize::0                 0                       # Read request sizes (log2) (Count)
system.far_mem_ctrl1.readPktSize::1                 0                       # Read request sizes (log2) (Count)
system.far_mem_ctrl1.readPktSize::2                 0                       # Read request sizes (log2) (Count)
system.far_mem_ctrl1.readPktSize::3                 0                       # Read request sizes (log2) (Count)
system.far_mem_ctrl1.readPktSize::4                 0                       # Read request sizes (log2) (Count)
system.far_mem_ctrl1.readPktSize::5                 0                       # Read request sizes (log2) (Count)
system.far_mem_ctrl1.readPktSize::6              1665                       # Read request sizes (log2) (Count)
system.far_mem_ctrl1.writePktSize::0                0                       # Write request sizes (log2) (Count)
system.far_mem_ctrl1.writePktSize::1                0                       # Write request sizes (log2) (Count)
system.far_mem_ctrl1.writePktSize::2                0                       # Write request sizes (log2) (Count)
system.far_mem_ctrl1.writePktSize::3                0                       # Write request sizes (log2) (Count)
system.far_mem_ctrl1.writePktSize::4                0                       # Write request sizes (log2) (Count)
system.far_mem_ctrl1.writePktSize::5                0                       # Write request sizes (log2) (Count)
system.far_mem_ctrl1.writePktSize::6              157                       # Write request sizes (log2) (Count)
system.far_mem_ctrl1.rdQLenPdf::0                 146                       # What read queue length does an incoming req see (Count)
system.far_mem_ctrl1.rdQLenPdf::1                 215                       # What read queue length does an incoming req see (Count)
system.far_mem_ctrl1.rdQLenPdf::2                 274                       # What read queue length does an incoming req see (Count)
system.far_mem_ctrl1.rdQLenPdf::3                 263                       # What read queue length does an incoming req see (Count)
system.far_mem_ctrl1.rdQLenPdf::4                 260                       # What read queue length does an incoming req see (Count)
system.far_mem_ctrl1.rdQLenPdf::5                 185                       # What read queue length does an incoming req see (Count)
system.far_mem_ctrl1.rdQLenPdf::6                 116                       # What read queue length does an incoming req see (Count)
system.far_mem_ctrl1.rdQLenPdf::7                  69                       # What read queue length does an incoming req see (Count)
system.far_mem_ctrl1.rdQLenPdf::8                  46                       # What read queue length does an incoming req see (Count)
system.far_mem_ctrl1.rdQLenPdf::9                  40                       # What read queue length does an incoming req see (Count)
system.far_mem_ctrl1.rdQLenPdf::10                 21                       # What read queue length does an incoming req see (Count)
system.far_mem_ctrl1.rdQLenPdf::11                 12                       # What read queue length does an incoming req see (Count)
system.far_mem_ctrl1.rdQLenPdf::12                 12                       # What read queue length does an incoming req see (Count)
system.far_mem_ctrl1.rdQLenPdf::13                  4                       # What read queue length does an incoming req see (Count)
system.far_mem_ctrl1.rdQLenPdf::14                  2                       # What read queue length does an incoming req see (Count)
system.far_mem_ctrl1.rdQLenPdf::15                  0                       # What read queue length does an incoming req see (Count)
system.far_mem_ctrl1.rdQLenPdf::16                  0                       # What read queue length does an incoming req see (Count)
system.far_mem_ctrl1.rdQLenPdf::17                  0                       # What read queue length does an incoming req see (Count)
system.far_mem_ctrl1.rdQLenPdf::18                  0                       # What read queue length does an incoming req see (Count)
system.far_mem_ctrl1.rdQLenPdf::19                  0                       # What read queue length does an incoming req see (Count)
system.far_mem_ctrl1.rdQLenPdf::20                  0                       # What read queue length does an incoming req see (Count)
system.far_mem_ctrl1.rdQLenPdf::21                  0                       # What read queue length does an incoming req see (Count)
system.far_mem_ctrl1.rdQLenPdf::22                  0                       # What read queue length does an incoming req see (Count)
system.far_mem_ctrl1.rdQLenPdf::23                  0                       # What read queue length does an incoming req see (Count)
system.far_mem_ctrl1.rdQLenPdf::24                  0                       # What read queue length does an incoming req see (Count)
system.far_mem_ctrl1.rdQLenPdf::25                  0                       # What read queue length does an incoming req see (Count)
system.far_mem_ctrl1.rdQLenPdf::26                  0                       # What read queue length does an incoming req see (Count)
system.far_mem_ctrl1.rdQLenPdf::27                  0                       # What read queue length does an incoming req see (Count)
system.far_mem_ctrl1.rdQLenPdf::28                  0                       # What read queue length does an incoming req see (Count)
system.far_mem_ctrl1.rdQLenPdf::29                  0                       # What read queue length does an incoming req see (Count)
system.far_mem_ctrl1.rdQLenPdf::30                  0                       # What read queue length does an incoming req see (Count)
system.far_mem_ctrl1.rdQLenPdf::31                  0                       # What read queue length does an incoming req see (Count)
system.far_mem_ctrl1.rdQLenPdf::32                  0                       # What read queue length does an incoming req see (Count)
system.far_mem_ctrl1.rdQLenPdf::33                  0                       # What read queue length does an incoming req see (Count)
system.far_mem_ctrl1.rdQLenPdf::34                  0                       # What read queue length does an incoming req see (Count)
system.far_mem_ctrl1.rdQLenPdf::35                  0                       # What read queue length does an incoming req see (Count)
system.far_mem_ctrl1.rdQLenPdf::36                  0                       # What read queue length does an incoming req see (Count)
system.far_mem_ctrl1.rdQLenPdf::37                  0                       # What read queue length does an incoming req see (Count)
system.far_mem_ctrl1.rdQLenPdf::38                  0                       # What read queue length does an incoming req see (Count)
system.far_mem_ctrl1.rdQLenPdf::39                  0                       # What read queue length does an incoming req see (Count)
system.far_mem_ctrl1.rdQLenPdf::40                  0                       # What read queue length does an incoming req see (Count)
system.far_mem_ctrl1.rdQLenPdf::41                  0                       # What read queue length does an incoming req see (Count)
system.far_mem_ctrl1.rdQLenPdf::42                  0                       # What read queue length does an incoming req see (Count)
system.far_mem_ctrl1.rdQLenPdf::43                  0                       # What read queue length does an incoming req see (Count)
system.far_mem_ctrl1.rdQLenPdf::44                  0                       # What read queue length does an incoming req see (Count)
system.far_mem_ctrl1.rdQLenPdf::45                  0                       # What read queue length does an incoming req see (Count)
system.far_mem_ctrl1.rdQLenPdf::46                  0                       # What read queue length does an incoming req see (Count)
system.far_mem_ctrl1.rdQLenPdf::47                  0                       # What read queue length does an incoming req see (Count)
system.far_mem_ctrl1.rdQLenPdf::48                  0                       # What read queue length does an incoming req see (Count)
system.far_mem_ctrl1.rdQLenPdf::49                  0                       # What read queue length does an incoming req see (Count)
system.far_mem_ctrl1.rdQLenPdf::50                  0                       # What read queue length does an incoming req see (Count)
system.far_mem_ctrl1.rdQLenPdf::51                  0                       # What read queue length does an incoming req see (Count)
system.far_mem_ctrl1.rdQLenPdf::52                  0                       # What read queue length does an incoming req see (Count)
system.far_mem_ctrl1.rdQLenPdf::53                  0                       # What read queue length does an incoming req see (Count)
system.far_mem_ctrl1.rdQLenPdf::54                  0                       # What read queue length does an incoming req see (Count)
system.far_mem_ctrl1.rdQLenPdf::55                  0                       # What read queue length does an incoming req see (Count)
system.far_mem_ctrl1.rdQLenPdf::56                  0                       # What read queue length does an incoming req see (Count)
system.far_mem_ctrl1.rdQLenPdf::57                  0                       # What read queue length does an incoming req see (Count)
system.far_mem_ctrl1.rdQLenPdf::58                  0                       # What read queue length does an incoming req see (Count)
system.far_mem_ctrl1.rdQLenPdf::59                  0                       # What read queue length does an incoming req see (Count)
system.far_mem_ctrl1.rdQLenPdf::60                  0                       # What read queue length does an incoming req see (Count)
system.far_mem_ctrl1.rdQLenPdf::61                  0                       # What read queue length does an incoming req see (Count)
system.far_mem_ctrl1.rdQLenPdf::62                  0                       # What read queue length does an incoming req see (Count)
system.far_mem_ctrl1.rdQLenPdf::63                  0                       # What read queue length does an incoming req see (Count)
system.far_mem_ctrl1.rdQLenPdf::64                  0                       # What read queue length does an incoming req see (Count)
system.far_mem_ctrl1.rdQLenPdf::65                  0                       # What read queue length does an incoming req see (Count)
system.far_mem_ctrl1.rdQLenPdf::66                  0                       # What read queue length does an incoming req see (Count)
system.far_mem_ctrl1.rdQLenPdf::67                  0                       # What read queue length does an incoming req see (Count)
system.far_mem_ctrl1.rdQLenPdf::68                  0                       # What read queue length does an incoming req see (Count)
system.far_mem_ctrl1.rdQLenPdf::69                  0                       # What read queue length does an incoming req see (Count)
system.far_mem_ctrl1.rdQLenPdf::70                  0                       # What read queue length does an incoming req see (Count)
system.far_mem_ctrl1.rdQLenPdf::71                  0                       # What read queue length does an incoming req see (Count)
system.far_mem_ctrl1.rdQLenPdf::72                  0                       # What read queue length does an incoming req see (Count)
system.far_mem_ctrl1.rdQLenPdf::73                  0                       # What read queue length does an incoming req see (Count)
system.far_mem_ctrl1.rdQLenPdf::74                  0                       # What read queue length does an incoming req see (Count)
system.far_mem_ctrl1.rdQLenPdf::75                  0                       # What read queue length does an incoming req see (Count)
system.far_mem_ctrl1.rdQLenPdf::76                  0                       # What read queue length does an incoming req see (Count)
system.far_mem_ctrl1.rdQLenPdf::77                  0                       # What read queue length does an incoming req see (Count)
system.far_mem_ctrl1.rdQLenPdf::78                  0                       # What read queue length does an incoming req see (Count)
system.far_mem_ctrl1.rdQLenPdf::79                  0                       # What read queue length does an incoming req see (Count)
system.far_mem_ctrl1.rdQLenPdf::80                  0                       # What read queue length does an incoming req see (Count)
system.far_mem_ctrl1.rdQLenPdf::81                  0                       # What read queue length does an incoming req see (Count)
system.far_mem_ctrl1.rdQLenPdf::82                  0                       # What read queue length does an incoming req see (Count)
system.far_mem_ctrl1.rdQLenPdf::83                  0                       # What read queue length does an incoming req see (Count)
system.far_mem_ctrl1.rdQLenPdf::84                  0                       # What read queue length does an incoming req see (Count)
system.far_mem_ctrl1.rdQLenPdf::85                  0                       # What read queue length does an incoming req see (Count)
system.far_mem_ctrl1.rdQLenPdf::86                  0                       # What read queue length does an incoming req see (Count)
system.far_mem_ctrl1.rdQLenPdf::87                  0                       # What read queue length does an incoming req see (Count)
system.far_mem_ctrl1.rdQLenPdf::88                  0                       # What read queue length does an incoming req see (Count)
system.far_mem_ctrl1.rdQLenPdf::89                  0                       # What read queue length does an incoming req see (Count)
system.far_mem_ctrl1.rdQLenPdf::90                  0                       # What read queue length does an incoming req see (Count)
system.far_mem_ctrl1.rdQLenPdf::91                  0                       # What read queue length does an incoming req see (Count)
system.far_mem_ctrl1.rdQLenPdf::92                  0                       # What read queue length does an incoming req see (Count)
system.far_mem_ctrl1.rdQLenPdf::93                  0                       # What read queue length does an incoming req see (Count)
system.far_mem_ctrl1.rdQLenPdf::94                  0                       # What read queue length does an incoming req see (Count)
system.far_mem_ctrl1.rdQLenPdf::95                  0                       # What read queue length does an incoming req see (Count)
system.far_mem_ctrl1.rdQLenPdf::96                  0                       # What read queue length does an incoming req see (Count)
system.far_mem_ctrl1.rdQLenPdf::97                  0                       # What read queue length does an incoming req see (Count)
system.far_mem_ctrl1.rdQLenPdf::98                  0                       # What read queue length does an incoming req see (Count)
system.far_mem_ctrl1.rdQLenPdf::99                  0                       # What read queue length does an incoming req see (Count)
system.far_mem_ctrl1.rdQLenPdf::100                 0                       # What read queue length does an incoming req see (Count)
system.far_mem_ctrl1.rdQLenPdf::101                 0                       # What read queue length does an incoming req see (Count)
system.far_mem_ctrl1.rdQLenPdf::102                 0                       # What read queue length does an incoming req see (Count)
system.far_mem_ctrl1.rdQLenPdf::103                 0                       # What read queue length does an incoming req see (Count)
system.far_mem_ctrl1.rdQLenPdf::104                 0                       # What read queue length does an incoming req see (Count)
system.far_mem_ctrl1.rdQLenPdf::105                 0                       # What read queue length does an incoming req see (Count)
system.far_mem_ctrl1.rdQLenPdf::106                 0                       # What read queue length does an incoming req see (Count)
system.far_mem_ctrl1.rdQLenPdf::107                 0                       # What read queue length does an incoming req see (Count)
system.far_mem_ctrl1.rdQLenPdf::108                 0                       # What read queue length does an incoming req see (Count)
system.far_mem_ctrl1.rdQLenPdf::109                 0                       # What read queue length does an incoming req see (Count)
system.far_mem_ctrl1.rdQLenPdf::110                 0                       # What read queue length does an incoming req see (Count)
system.far_mem_ctrl1.rdQLenPdf::111                 0                       # What read queue length does an incoming req see (Count)
system.far_mem_ctrl1.rdQLenPdf::112                 0                       # What read queue length does an incoming req see (Count)
system.far_mem_ctrl1.rdQLenPdf::113                 0                       # What read queue length does an incoming req see (Count)
system.far_mem_ctrl1.rdQLenPdf::114                 0                       # What read queue length does an incoming req see (Count)
system.far_mem_ctrl1.rdQLenPdf::115                 0                       # What read queue length does an incoming req see (Count)
system.far_mem_ctrl1.rdQLenPdf::116                 0                       # What read queue length does an incoming req see (Count)
system.far_mem_ctrl1.rdQLenPdf::117                 0                       # What read queue length does an incoming req see (Count)
system.far_mem_ctrl1.rdQLenPdf::118                 0                       # What read queue length does an incoming req see (Count)
system.far_mem_ctrl1.rdQLenPdf::119                 0                       # What read queue length does an incoming req see (Count)
system.far_mem_ctrl1.rdQLenPdf::120                 0                       # What read queue length does an incoming req see (Count)
system.far_mem_ctrl1.rdQLenPdf::121                 0                       # What read queue length does an incoming req see (Count)
system.far_mem_ctrl1.rdQLenPdf::122                 0                       # What read queue length does an incoming req see (Count)
system.far_mem_ctrl1.rdQLenPdf::123                 0                       # What read queue length does an incoming req see (Count)
system.far_mem_ctrl1.rdQLenPdf::124                 0                       # What read queue length does an incoming req see (Count)
system.far_mem_ctrl1.rdQLenPdf::125                 0                       # What read queue length does an incoming req see (Count)
system.far_mem_ctrl1.rdQLenPdf::126                 0                       # What read queue length does an incoming req see (Count)
system.far_mem_ctrl1.rdQLenPdf::127                 0                       # What read queue length does an incoming req see (Count)
system.far_mem_ctrl1.wrQLenPdf::0                   1                       # What write queue length does an incoming req see (Count)
system.far_mem_ctrl1.wrQLenPdf::1                   1                       # What write queue length does an incoming req see (Count)
system.far_mem_ctrl1.wrQLenPdf::2                   1                       # What write queue length does an incoming req see (Count)
system.far_mem_ctrl1.wrQLenPdf::3                   1                       # What write queue length does an incoming req see (Count)
[...]
system.mem_ctrl0.avgLocWrQLenStrt                0.00                       # Average local write queue length ((Count/Tick))
system.mem_ctrl0.avgFarRdQLenStrt                0.00                       # Average far read queue length ((Count/Tick))
system.mem_ctrl0.avgFarWrQLenStrt                0.00                       # Average far write queue length ((Count/Tick))
system.mem_ctrl0.avgLocRdQLenEnq                 1.00                       # Average local read queue length when enqueuing ((Count/Tick))
system.mem_ctrl0.avgLocWrQLenEnq                 1.00                       # Average local write queue length when enqueuing ((Count/Tick))
system.mem_ctrl0.avgFarRdQLenEnq                 1.00                       # Average far read queue length when enqueuing ((Count/Tick))
system.mem_ctrl0.avgFarWrQLenEnq                 0.95                       # Average far write queue length when enqueuing ((Count/Tick))
system.mem_ctrl0.numWrBacks                       187                       # Total number of write backs from DRAM cache to main memory (Unspecified)
system.mem_ctrl0.totNumConf                         1                       # Total number of packets conflicted on DRAM cache (Unspecified)
system.mem_ctrl0.totNumORBFull                      0                       # Total number of packets ORB full (Unspecified)
system.mem_ctrl0.totNumCRBFull                      0                       # Total number of packets conflicted yet couldn't enter confBuffer (Unspecified)
system.mem_ctrl0.maxNumConf                         1                       # Maximum number of packets conflicted on DRAM cache (Unspecified)
system.mem_ctrl0.sentLocRdPort                   3326                       # stat (Unspecified)
system.mem_ctrl0.sentLocWrPort                   3316                       # stat (Unspecified)
system.mem_ctrl0.failedLocRdPort                    0                       # stat (Unspecified)
system.mem_ctrl0.failedLocWrPort                    0                       # stat (Unspecified)
system.mem_ctrl0.recvdRdPort                        0                       # stat (Unspecified)
system.mem_ctrl0.sentFarRdPort                   1623                       # stat (Unspecified)
system.mem_ctrl0.sentFarWrPort                    187                       # stat (Unspecified)
system.mem_ctrl0.failedFarRdPort                    0                       # stat (Unspecified)
system.mem_ctrl0.failedFarWrPort                    0                       # stat (Unspecified)
system.mem_ctrl0.totPktsServiceTime            794727                       # stat (Unspecified)
system.mem_ctrl0.totPktsORBTime                794623                       # stat (Unspecified)
system.mem_ctrl0.totTimeFarRdtoSend                 0                       # stat (Unspecified)
system.mem_ctrl0.totTimeFarRdtoRecv            356272                       # stat (Unspecified)
system.mem_ctrl0.totTimeFarWrtoSend                 0                       # stat (Unspecified)
system.mem_ctrl0.totTimeInLocRead              404510                       # stat (Unspecified)
system.mem_ctrl0.totTimeInLocWrite              33160                       # stat (Unspecified)
system.mem_ctrl0.totTimeInFarRead              356272                       # stat (Unspecified)
system.mem_ctrl0.numTotHits                         0                       # stat (Unspecified)
system.mem_ctrl0.numTotMisses                    3326                       # stat (Unspecified)
system.mem_ctrl0.numColdMisses                   3014                       # stat (Unspecified)
system.mem_ctrl0.numHotMisses                     312                       # stat (Unspecified)
system.mem_ctrl0.numRdMissClean                  1523                       # stat (Unspecified)
system.mem_ctrl0.numRdMissDirty                   102                       # stat (Unspecified)
system.mem_ctrl0.numRdHit                           0                       # stat (Unspecified)
system.mem_ctrl0.numWrMissClean                  1616                       # stat (Unspecified)
system.mem_ctrl0.numWrMissDirty                    85                       # stat (Unspecified)
system.mem_ctrl0.numWrHit                           0                       # stat (Unspecified)
system.mem_ctrl0.numRdHitDirty                      0                       # stat (Unspecified)
system.mem_ctrl0.numRdHitClean                      0                       # stat (Unspecified)
system.mem_ctrl0.numWrHitDirty                      0                       # stat (Unspecified)
system.mem_ctrl0.numWrHitClean                      0                       # stat (Unspecified)
system.mem_ctrl0.power_state.pwrStateResidencyTicks::UNDEFINED     99999999                       # Cumulative time (in ticks) in various power states (Tick)
system.mem_ctrl1.bytesRead::generators0         54848                       # Number of bytes read from this memory (Byte)
system.mem_ctrl1.bytesRead::generators1         51584                       # Number of bytes read from this memory (Byte)
system.mem_ctrl1.bytesRead::total              106432                       # Number of bytes read from this memory (Byte)
system.mem_ctrl1.bytesWritten::generators0        55936                       # Number of bytes written to this memory (Byte)
system.mem_ctrl1.bytesWritten::generators1        54080                       # Number of bytes written to this memory (Byte)
system.mem_ctrl1.bytesWritten::total           110016                       # Number of bytes written to this memory (Byte)
system.mem_ctrl1.numReads::generators0            857                       # Number of read requests responded to by this memory (Count)
system.mem_ctrl1.numReads::generators1            806                       # Number of read requests responded to by this memory (Count)
system.mem_ctrl1.numReads::total                 1663                       # Number of read requests responded to by this memory (Count)
system.mem_ctrl1.numWrites::generators0           874                       # Number of write requests responded to by this memory (Count)
system.mem_ctrl1.numWrites::generators1           845                       # Number of write requests responded to by this memory (Count)
system.mem_ctrl1.numWrites::total                1719                       # Number of write requests responded to by this memory (Count)
system.mem_ctrl1.bwRead::generators0        548480005                       # Total read bandwidth from this memory ((Byte/Second))
system.mem_ctrl1.bwRead::generators1        515840005                       # Total read bandwidth from this memory ((Byte/Second))
system.mem_ctrl1.bwRead::total             1064320011                       # Total read bandwidth from this memory ((Byte/Second))
system.mem_ctrl1.bwWrite::generators0       559360006                       # Write bandwidth from this memory ((Byte/Second))
system.mem_ctrl1.bwWrite::generators1       540800005                       # Write bandwidth from this memory ((Byte/Second))
system.mem_ctrl1.bwWrite::total            1100160011                       # Write bandwidth from this memory ((Byte/Second))
system.mem_ctrl1.bwTotal::generators0      1107840011                       # Total bandwidth to/from this memory ((Byte/Second))
system.mem_ctrl1.bwTotal::generators1      1056640011                       # Total bandwidth to/from this memory ((Byte/Second))
system.mem_ctrl1.bwTotal::total            2164480022                       # Total bandwidth to/from this memory ((Byte/Second))
system.mem_ctrl1.readReqs                        1665                       # Number of read requests accepted (Count)
system.mem_ctrl1.writeReqs                       1719                       # Number of write requests accepted (Count)
system.mem_ctrl1.servicedByWrQ                      0                       # Number of controller read bursts serviced by the write queue (Count)
system.mem_ctrl1.mergedWrBursts                     0                       # Number of controller write bursts merged with an existing one (Count)
system.mem_ctrl1.numRdRetry                         0                       # Number of times read queue was full causing retry (Count)
system.mem_ctrl1.numWrRetry                         0                       # Number of times write queue was full causing retry (Count)
system.mem_ctrl1.readPktSize::0                     0                       # Read request sizes (log2) (Count)
system.mem_ctrl1.readPktSize::1                     0                       # Read request sizes (log2) (Count)
system.mem_ctrl1.readPktSize::2                     0                       # Read request sizes (log2) (Count)
system.mem_ctrl1.readPktSize::3                     0                       # Read request sizes (log2) (Count)
system.mem_ctrl1.readPktSize::4                     0                       # Read request sizes (log2) (Count)
system.mem_ctrl1.readPktSize::5                     0                       # Read request sizes (log2) (Count)
system.mem_ctrl1.readPktSize::6                  1665                       # Read request sizes (log2) (Count)
system.mem_ctrl1.writePktSize::0                    0                       # Write request sizes (log2) (Count)
system.mem_ctrl1.writePktSize::1                    0                       # Write request sizes (log2) (Count)
system.mem_ctrl1.writePktSize::2                    0                       # Write request sizes (log2) (Count)
system.mem_ctrl1.writePktSize::3                    0                       # Write request sizes (log2) (Count)
system.mem_ctrl1.writePktSize::4                    0                       # Write request sizes (log2) (Count)
system.mem_ctrl1.writePktSize::5                    0                       # Write request sizes (log2) (Count)
system.mem_ctrl1.writePktSize::6                 1719                       # Write request sizes (log2) (Count)
system.mem_ctrl1.bytesReadWrQ                       0                       # Total number of bytes read from write queue (Byte)
system.mem_ctrl1.bytesReadSys                  106560                       # Total read bytes from the system interface side (Byte)
system.mem_ctrl1.bytesWrittenSys               110016                       # Total written bytes from the system interface side (Byte)
system.mem_ctrl1.avgRdBWSys              1065600010.65600014                       # Average system read bandwidth in Byte/s ((Byte/Second))
system.mem_ctrl1.avgWrBWSys              1100160011.00160027                       # Average system write bandwidth in Byte/s ((Byte/Second))
system.mem_ctrl1.totGap                  18446604451479908352                       # Total gap between requests (Tick)
system.mem_ctrl1.avgGap                  5451124246891226.00                       # Average gap between requests ((Tick/Count))
system.mem_ctrl1.avgORBLen                     9.3174                       # Average ORB length ((Count/Tick))
system.mem_ctrl1.avgLocRdQLenStrt                0.00                       # Average local read queue length ((Count/Tick))
system.mem_ctrl1.avgLocWrQLenStrt                0.00                       # Average local write queue length ((Count/Tick))
system.mem_ctrl1.avgFarRdQLenStrt                0.00                       # Average far read queue length ((Count/Tick))
system.mem_ctrl1.avgFarWrQLenStrt                0.00                       # Average far write queue length ((Count/Tick))
system.mem_ctrl1.avgLocRdQLenEnq                 1.00                       # Average local read queue length when enqueuing ((Count/Tick))
system.mem_ctrl1.avgLocWrQLenEnq                 1.00                       # Average local write queue length when enqueuing ((Count/Tick))
system.mem_ctrl1.avgFarRdQLenEnq                 1.00                       # Average far read queue length when enqueuing ((Count/Tick))
system.mem_ctrl1.avgFarWrQLenEnq                 0.94                       # Average far write queue length when enqueuing ((Count/Tick))
system.mem_ctrl1.numWrBacks                       157                       # Total number of write backs from DRAM cache to main memory (Unspecified)
system.mem_ctrl1.totNumConf                         1                       # Total number of packets conflicted on DRAM cache (Unspecified)
system.mem_ctrl1.totNumORBFull                      0                       # Total number of packets ORB full (Unspecified)
system.mem_ctrl1.totNumCRBFull                      0                       # Total number of packets conflicted yet couldn't enter confBuffer (Unspecified)
system.mem_ctrl1.maxNumConf                         1                       # Maximum number of packets conflicted on DRAM cache (Unspecified)
system.mem_ctrl1.sentLocRdPort                   3384                       # stat (Unspecified)
system.mem_ctrl1.sentLocWrPort                   3380                       # stat (Unspecified)
system.mem_ctrl1.failedLocRdPort                    0                       # stat (Unspecified)
system.mem_ctrl1.failedLocWrPort                    0                       # stat (Unspecified)
system.mem_ctrl1.recvdRdPort                        0                       # stat (Unspecified)
system.mem_ctrl1.sentFarRdPort                   1665                       # stat (Unspecified)
system.mem_ctrl1.sentFarWrPort                    157                       # stat (Unspecified)
system.mem_ctrl1.failedFarRdPort                    0                       # stat (Unspecified)
system.mem_ctrl1.failedFarWrPort                    0                       # stat (Unspecified)
system.mem_ctrl1.totPktsServiceTime            849877                       # stat (Unspecified)
system.mem_ctrl1.totPktsORBTime                849858                       # stat (Unspecified)
system.mem_ctrl1.totTimeFarRdtoSend                 0                       # stat (Unspecified)
system.mem_ctrl1.totTimeFarRdtoRecv            389252                       # stat (Unspecified)
system.mem_ctrl1.totTimeFarWrtoSend                 0                       # stat (Unspecified)
system.mem_ctrl1.totTimeInLocRead              426128                       # stat (Unspecified)
system.mem_ctrl1.totTimeInLocWrite              33800                       # stat (Unspecified)
system.mem_ctrl1.totTimeInFarRead              389252                       # stat (Unspecified)
system.mem_ctrl1.numTotHits                         0                       # stat (Unspecified)
system.mem_ctrl1.numTotMisses                    3384                       # stat (Unspecified)
system.mem_ctrl1.numColdMisses                   3058                       # stat (Unspecified)
system.mem_ctrl1.numHotMisses                     326                       # stat (Unspecified)
system.mem_ctrl1.numRdMissClean                  1577                       # stat (Unspecified)
system.mem_ctrl1.numRdMissDirty                    88                       # stat (Unspecified)
system.mem_ctrl1.numRdHit                           0                       # stat (Unspecified)
system.mem_ctrl1.numWrMissClean                  1650                       # stat (Unspecified)
system.mem_ctrl1.numWrMissDirty                    69                       # stat (Unspecified)
system.mem_ctrl1.numWrHit                           0                       # stat (Unspecified)
system.mem_ctrl1.numRdHitDirty                      0                       # stat (Unspecified)
system.mem_ctrl1.numRdHitClean                      0                       # stat (Unspecified)
system.mem_ctrl1.numWrHitDirty                      0                       # stat (Unspecified)
system.mem_ctrl1.numWrHitClean                      0                       # stat (Unspecified)
system.mem_ctrl1.power_state.pwrStateResidencyTicks::UNDEFINED     99999999                       # Cumulative time (in ticks) in various power states (Tick)
system.membus.transDist::ReadReq                 3290                       # Transaction distribution (Count)
system.membus.transDist::ReadResp                3280                       # Transaction distribution (Count)
system.membus.transDist::WriteReq                3420                       # Transaction distribution (Count)
system.membus.transDist::WriteResp               3418                       # Transaction distribution (Count)
system.membus.pktCount_system.generators0.port::system.mem_ctrl0.port         3241                       # Packet count per connected requestor and responder (Count)
system.membus.pktCount_system.generators0.port::system.mem_ctrl1.port         3462                       # Packet count per connected requestor and responder (Count)
system.membus.pktCount_system.generators0.port::total         6703                       # Packet count per connected requestor and responder (Count)
system.membus.pktCount_system.generators1.port::system.mem_ctrl0.port         3402                       # Packet count per connected requestor and responder (Count)
system.membus.pktCount_system.generators1.port::system.mem_ctrl1.port         3303                       # Packet count per connected requestor and responder (Count)
system.membus.pktCount_system.generators1.port::total         6705                       # Packet count per connected requestor and responder (Count)
system.membus.pktCount::total                   13408                       # Packet count per connected requestor and responder (Count)
system.membus.pktSize_system.generators0.port::system.mem_ctrl0.port       103552                       # Cumulative packet size per connected requestor and responder (Byte)
system.membus.pktSize_system.generators0.port::system.mem_ctrl1.port       110784                       # Cumulative packet size per connected requestor and responder (Byte)
system.membus.pktSize_system.generators0.port::total       214336                       # Cumulative packet size per connected requestor and responder (Byte)
system.membus.pktSize_system.generators1.port::system.mem_ctrl0.port       108800                       # Cumulative packet size per connected requestor and responder (Byte)
system.membus.pktSize_system.generators1.port::system.mem_ctrl1.port       105664                       # Cumulative packet size per connected requestor and responder (Byte)
system.membus.pktSize_system.generators1.port::total       214464                       # Cumulative packet size per connected requestor and responder (Byte)
system.membus.pktSize::total                   428800                       # Cumulative packet size per connected requestor and responder (Byte)
system.membus.power_state.pwrStateResidencyTicks::UNDEFINED     99999999                       # Cumulative time (in ticks) in various power states (Tick)
system.membus.reqLayer0.occupancy             1256282                       # Layer occupancy (ticks) (Tick)
system.membus.reqLayer0.utilization               0.0                       # Layer utilization (Ratio)
system.membus.reqLayer1.occupancy             1272516                       # Layer occupancy (ticks) (Tick)
system.membus.reqLayer1.utilization               0.0                       # Layer utilization (Ratio)
system.membus.respLayer0.occupancy            1167601                       # Layer occupancy (ticks) (Tick)
system.membus.respLayer0.utilization              0.0                       # Layer utilization (Ratio)
system.membus.respLayer1.occupancy            1169587                       # Layer occupancy (ticks) (Tick)
system.membus.respLayer1.utilization              0.0                       # Layer utilization (Ratio)
system.workload.inst.arm                            0                       # number of arm instructions executed (Count)
system.workload.inst.quiesce                        0                       # number of quiesce instructions executed (Count)

---------- End Simulation Statistics   ----------
