
---------- Begin Simulation Statistics ----------
simSeconds                                   0.001000                       # Number of seconds simulated (Second)
simTicks                                   1000000000                       # Number of ticks simulated (Tick)
finalTick                                  1000000000                       # Number of ticks from beginning of simulation (restored from checkpoints and never reset) (Tick)
simFreq                                  1000000000000                       # The number of ticks per simulated second ((Tick/Second))
hostSeconds                                      0.73                       # Real time elapsed on the host (Second)
hostTickRate                               1365322993                       # The number of ticks simulated per host second (ticks/s) ((Tick/Second))
hostMemory                                    8500640                       # Number of bytes of host memory used (Byte)
system.clk_domain.clock                           200                       # Clock period in ticks (Tick)
system.clk_domain.voltage_domain.voltage            1                       # Voltage in Volts (Volt)
system.far_mem_ctrl0.avgPriority_writebacks::samples     16839.00                       # Average QoS priority value for accepted requests (Count)
system.far_mem_ctrl0.priorityMinLatency  0.000000032500                       # per QoS priority minimum request to response latency (Second)
system.far_mem_ctrl0.priorityMaxLatency  0.000000721710                       # per QoS priority maximum request to response latency (Second)
system.far_mem_ctrl0.numReadWriteTurnArounds            0                       # Number of turnarounds from READ to WRITE (Count)
system.far_mem_ctrl0.numWriteReadTurnArounds            0                       # Number of turnarounds from WRITE to READ (Count)
system.far_mem_ctrl0.numStayReadState           30521                       # Number of times bus staying in READ state (Count)
system.far_mem_ctrl0.numStayWriteState              0                       # Number of times bus staying in WRITE state (Count)
system.far_mem_ctrl0.readReqs                   16839                       # Number of read requests accepted (Count)
system.far_mem_ctrl0.writeReqs                      0                       # Number of write requests accepted (Count)
system.far_mem_ctrl0.readBursts                 16839                       # Number of controller read bursts, including those serviced by the write queue (Count)
system.far_mem_ctrl0.writeBursts                    0                       # Number of controller write bursts, including those merged in the write queue (Count)
system.far_mem_ctrl0.servicedByWrQ                  0                       # Number of controller read bursts serviced by the write queue (Count)
system.far_mem_ctrl0.mergedWrBursts                 0                       # Number of controller write bursts merged with an existing one (Count)
system.far_mem_ctrl0.neitherReadNorWriteReqs            0                       # Number of requests that are neither read nor write (Count)
system.far_mem_ctrl0.avgRdQLen                   1.96                       # Average read queue length when enqueuing ((Count/Tick))
system.far_mem_ctrl0.avgWrQLen                   0.00                       # Average write queue length when enqueuing ((Count/Tick))
system.far_mem_ctrl0.numRdRetry                     0                       # Number of times read queue was full causing retry (Count)
system.far_mem_ctrl0.numWrRetry                     0                       # Number of times write queue was full causing retry (Count)
system.far_mem_ctrl0.readPktSize::0                 0                       # Read request sizes (log2) (Count)
system.far_mem_ctrl0.readPktSize::1                 0                       # Read request sizes (log2) (Count)
system.far_mem_ctrl0.readPktSize::2                 0                       # Read request sizes (log2) (Count)
system.far_mem_ctrl0.readPktSize::3                 0                       # Read request sizes (log2) (Count)
system.far_mem_ctrl0.readPktSize::4                 0                       # Read request sizes (log2) (Count)
system.far_mem_ctrl0.readPktSize::5                 0                       # Read request sizes (log2) (Count)
system.far_mem_ctrl0.readPktSize::6             16839                       # Read request sizes (log2) (Count)
system.far_mem_ctrl0.writePktSize::0                0                       # Write request sizes (log2) (Count)
system.far_mem_ctrl0.writePktSize::1                0                       # Write request sizes (log2) (Count)
system.far_mem_ctrl0.writePktSize::2                0                       # Write request sizes (log2) (Count)
system.far_mem_ctrl0.writePktSize::3                0                       # Write request sizes (log2) (Count)
system.far_mem_ctrl0.writePktSize::4                0                       # Write request sizes (log2) (Count)
system.far_mem_ctrl0.writePktSize::5                0                       # Write request sizes (log2) (Count)
system.far_mem_ctrl0.writePktSize::6                0                       # Write request sizes (log2) (Count)
system.far_mem_ctrl0.rdQLenPdf::0                6890                       # What read queue length does an incoming req see (Count)
system.far_mem_ctrl0.rdQLenPdf::1                6013                       # What read queue length does an incoming req see (Count)
system.far_mem_ctrl0.rdQLenPdf::2                2344                       # What read queue length does an incoming req see (Count)
system.far_mem_ctrl0.rdQLenPdf::3                 894                       # What read queue length does an incoming req see (Count)
system.far_mem_ctrl0.rdQLenPdf::4                 394                       # What read queue length does an incoming req see (Count)
system.far_mem_ctrl0.rdQLenPdf::5                 154                       # What read queue length does an incoming req see (Count)
system.far_mem_ctrl0.rdQLenPdf::6                  72                       # What read queue length does an incoming req see (Count)
system.far_mem_ctrl0.rdQLenPdf::7                  40                       # What read queue length does an incoming req see (Count)
system.far_mem_ctrl0.rdQLenPdf::8                  16                       # What read queue length does an incoming req see (Count)
system.far_mem_ctrl0.rdQLenPdf::9                  11                       # What read queue length does an incoming req see (Count)
system.far_mem_ctrl0.rdQLenPdf::10                  5                       # What read queue length does an incoming req see (Count)
system.far_mem_ctrl0.rdQLenPdf::11                  3                       # What read queue length does an incoming req see (Count)
system.far_mem_ctrl0.rdQLenPdf::12                  1                       # What read queue length does an incoming req see (Count)
system.far_mem_ctrl0.rdQLenPdf::13                  2                       # What read queue length does an incoming req see (Count)
system.far_mem_ctrl0.rdQLenPdf::14                  0                       # What read queue length does an incoming req see (Count)
system.far_mem_ctrl0.rdQLenPdf::15                  0                       # What read queue length does an incoming req see (Count)
system.far_mem_ctrl0.rdQLenPdf::16                  0                       # What read queue length does an incoming req see (Count)
system.far_mem_ctrl0.rdQLenPdf::17                  0                       # What read queue length does an incoming req see (Count)
system.far_mem_ctrl0.rdQLenPdf::18                  0                       # What read queue length does an incoming req see (Count)
system.far_mem_ctrl0.rdQLenPdf::19                  0                       # What read queue length does an incoming req see (Count)
system.far_mem_ctrl0.rdQLenPdf::20                  0                       # What read queue length does an incoming req see (Count)
system.far_mem_ctrl0.rdQLenPdf::21                  0                       # What read queue length does an incoming req see (Count)
system.far_mem_ctrl0.rdQLenPdf::22                  0                       # What read queue length does an incoming req see (Count)
system.far_mem_ctrl0.rdQLenPdf::23                  0                       # What read queue length does an incoming req see (Count)
system.far_mem_ctrl0.rdQLenPdf::24                  0                       # What read queue length does an incoming req see (Count)
system.far_mem_ctrl0.rdQLenPdf::25                  0                       # What read queue length does an incoming req see (Count)
system.far_mem_ctrl0.rdQLenPdf::26                  0                       # What read queue length does an incoming req see (Count)
system.far_mem_ctrl0.rdQLenPdf::27                  0                       # What read queue length does an incoming req see (Count)
system.far_mem_ctrl0.rdQLenPdf::28                  0                       # What read queue length does an incoming req see (Count)
system.far_mem_ctrl0.rdQLenPdf::29                  0                       # What read queue length does an incoming req see (Count)
system.far_mem_ctrl0.rdQLenPdf::30                  0                       # What read queue length does an incoming req see (Count)
system.far_mem_ctrl0.rdQLenPdf::31                  0                       # What read queue length does an incoming req see (Count)
system.far_mem_ctrl0.rdQLenPdf::32                  0                       # What read queue length does an incoming req see (Count)
system.far_mem_ctrl0.rdQLenPdf::33                  0                       # What read queue length does an incoming req see (Count)
system.far_mem_ctrl0.rdQLenPdf::34                  0                       # What read queue length does an incoming req see (Count)
system.far_mem_ctrl0.rdQLenPdf::35                  0                       # What read queue length does an incoming req see (Count)
system.far_mem_ctrl0.rdQLenPdf::36                  0                       # What read queue length does an incoming req see (Count)
system.far_mem_ctrl0.rdQLenPdf::37                  0                       # What read queue length does an incoming req see (Count)
system.far_mem_ctrl0.rdQLenPdf::38                  0                       # What read queue length does an incoming req see (Count)
system.far_mem_ctrl0.rdQLenPdf::39                  0                       # What read queue length does an incoming req see (Count)
system.far_mem_ctrl0.rdQLenPdf::40                  0                       # What read queue length does an incoming req see (Count)
system.far_mem_ctrl0.rdQLenPdf::41                  0                       # What read queue length does an incoming req see (Count)
system.far_mem_ctrl0.rdQLenPdf::42                  0                       # What read queue length does an incoming req see (Count)
system.far_mem_ctrl0.rdQLenPdf::43                  0                       # What read queue length does an incoming req see (Count)
system.far_mem_ctrl0.rdQLenPdf::44                  0                       # What read queue length does an incoming req see (Count)
system.far_mem_ctrl0.rdQLenPdf::45                  0                       # What read queue length does an incoming req see (Count)
system.far_mem_ctrl0.rdQLenPdf::46                  0                       # What read queue length does an incoming req see (Count)
system.far_mem_ctrl0.rdQLenPdf::47                  0                       # What read queue length does an incoming req see (Count)
system.far_mem_ctrl0.rdQLenPdf::48                  0                       # What read queue length does an incoming req see (Count)
system.far_mem_ctrl0.rdQLenPdf::49                  0                       # What read queue length does an incoming req see (Count)
system.far_mem_ctrl0.rdQLenPdf::50                  0                       # What read queue length does an incoming req see (Count)
system.far_mem_ctrl0.rdQLenPdf::51                  0                       # What read queue length does an incoming req see (Count)
system.far_mem_ctrl0.rdQLenPdf::52                  0                       # What read queue length does an incoming req see (Count)
system.far_mem_ctrl0.rdQLenPdf::53                  0                       # What read queue length does an incoming req see (Count)
system.far_mem_ctrl0.rdQLenPdf::54                  0                       # What read queue length does an incoming req see (Count)
system.far_mem_ctrl0.rdQLenPdf::55                  0                       # What read queue length does an incoming req see (Count)
system.far_mem_ctrl0.rdQLenPdf::56                  0                       # What read queue length does an incoming req see (Count)
system.far_mem_ctrl0.rdQLenPdf::57                  0                       # What read queue length does an incoming req see (Count)
system.far_mem_ctrl0.rdQLenPdf::58                  0                       # What read queue length does an incoming req see (Count)
system.far_mem_ctrl0.rdQLenPdf::59                  0                       # What read queue length does an incoming req see (Count)
system.far_mem_ctrl0.rdQLenPdf::60                  0                       # What read queue length does an incoming req see (Count)
system.far_mem_ctrl0.rdQLenPdf::61                  0                       # What read queue length does an incoming req see (Count)
system.far_mem_ctrl0.rdQLenPdf::62                  0                       # What read queue length does an incoming req see (Count)
system.far_mem_ctrl0.rdQLenPdf::63                  0                       # What read queue length does an incoming req see (Count)
system.far_mem_ctrl0.rdQLenPdf::64                  0                       # What read queue length does an incoming req see (Count)
system.far_mem_ctrl0.rdQLenPdf::65                  0                       # What read queue length does an incoming req see (Count)
system.far_mem_ctrl0.rdQLenPdf::66                  0                       # What read queue length does an incoming req see (Count)
system.far_mem_ctrl0.rdQLenPdf::67                  0                       # What read queue length does an incoming req see (Count)
system.far_mem_ctrl0.rdQLenPdf::68                  0                       # What read queue length does an incoming req see (Count)
system.far_mem_ctrl0.rdQLenPdf::69                  0                       # What read queue length does an incoming req see (Count)
system.far_mem_ctrl0.rdQLenPdf::70                  0                       # What read queue length does an incoming req see (Count)
system.far_mem_ctrl0.rdQLenPdf::71                  0                       # What read queue length does an incoming req see (Count)
system.far_mem_ctrl0.rdQLenPdf::72                  0                       # What read queue length does an incoming req see (Count)
system.far_mem_ctrl0.rdQLenPdf::73                  0                       # What read queue length does an incoming req see (Count)
system.far_mem_ctrl0.rdQLenPdf::74                  0                       # What read queue length does an incoming req see (Count)
system.far_mem_ctrl0.rdQLenPdf::75                  0                       # What read queue length does an incoming req see (Count)
system.far_mem_ctrl0.rdQLenPdf::76                  0                       # What read queue length does an incoming req see (Count)
system.far_mem_ctrl0.rdQLenPdf::77                  0                       # What read queue length does an incoming req see (Count)
system.far_mem_ctrl0.rdQLenPdf::78                  0                       # What read queue length does an incoming req see (Count)
system.far_mem_ctrl0.rdQLenPdf::79                  0                       # What read queue length does an incoming req see (Count)
system.far_mem_ctrl0.rdQLenPdf::80                  0                       # What read queue length does an incoming req see (Count)
system.far_mem_ctrl0.rdQLenPdf::81                  0                       # What read queue length does an incoming req see (Count)
system.far_mem_ctrl0.rdQLenPdf::82                  0                       # What read queue length does an incoming req see (Count)
system.far_mem_ctrl0.rdQLenPdf::83                  0                       # What read queue length does an incoming req see (Count)
system.far_mem_ctrl0.rdQLenPdf::84                  0                       # What read queue length does an incoming req see (Count)
system.far_mem_ctrl0.rdQLenPdf::85                  0                       # What read queue length does an incoming req see (Count)
system.far_mem_ctrl0.rdQLenPdf::86                  0                       # What read queue length does an incoming req see (Count)
system.far_mem_ctrl0.rdQLenPdf::87                  0                       # What read queue length does an incoming req see (Count)
system.far_mem_ctrl0.rdQLenPdf::88                  0                       # What read queue length does an incoming req see (Count)
system.far_mem_ctrl0.rdQLenPdf::89                  0                       # What read queue length does an incoming req see (Count)
system.far_mem_ctrl0.rdQLenPdf::90                  0                       # What read queue length does an incoming req see (Count)
system.far_mem_ctrl0.rdQLenPdf::91                  0                       # What read queue length does an incoming req see (Count)
system.far_mem_ctrl0.rdQLenPdf::92                  0                       # What read queue length does an incoming req see (Count)
system.far_mem_ctrl0.rdQLenPdf::93                  0                       # What read queue length does an incoming req see (Count)
system.far_mem_ctrl0.rdQLenPdf::94                  0                       # What read queue length does an incoming req see (Count)
system.far_mem_ctrl0.rdQLenPdf::95                  0                       # What read queue length does an incoming req see (Count)
system.far_mem_ctrl0.rdQLenPdf::96                  0                       # What read queue length does an incoming req see (Count)
system.far_mem_ctrl0.rdQLenPdf::97                  0                       # What read queue length does an incoming req see (Count)
system.far_mem_ctrl0.rdQLenPdf::98                  0                       # What read queue length does an incoming req see (Count)
system.far_mem_ctrl0.rdQLenPdf::99                  0                       # What read queue length does an incoming req see (Count)
system.far_mem_ctrl0.rdQLenPdf::100                 0                       # What read queue length does an incoming req see (Count)
system.far_mem_ctrl0.rdQLenPdf::101                 0                       # What read queue length does an incoming req see (Count)
system.far_mem_ctrl0.rdQLenPdf::102                 0                       # What read queue length does an incoming req see (Count)
system.far_mem_ctrl0.rdQLenPdf::103                 0                       # What read queue length does an incoming req see (Count)
system.far_mem_ctrl0.rdQLenPdf::104                 0                       # What read queue length does an incoming req see (Count)
system.far_mem_ctrl0.rdQLenPdf::105                 0                       # What read queue length does an incoming req see (Count)
system.far_mem_ctrl0.rdQLenPdf::106                 0                       # What read queue length does an incoming req see (Count)
system.far_mem_ctrl0.rdQLenPdf::107                 0                       # What read queue length does an incoming req see (Count)
system.far_mem_ctrl0.rdQLenPdf::108                 0                       # What read queue length does an incoming req see (Count)
system.far_mem_ctrl0.rdQLenPdf::109                 0                       # What read queue length does an incoming req see (Count)
system.far_mem_ctrl0.rdQLenPdf::110                 0                       # What read queue length does an incoming req see (Count)
system.far_mem_ctrl0.rdQLenPdf::111                 0                       # What read queue length does an incoming req see (Count)
system.far_mem_ctrl0.rdQLenPdf::112                 0                       # What read queue length does an incoming req see (Count)
system.far_mem_ctrl0.rdQLenPdf::113                 0                       # What read queue length does an incoming req see (Count)
system.far_mem_ctrl0.rdQLenPdf::114                 0                       # What read queue length does an incoming req see (Count)
system.far_mem_ctrl0.rdQLenPdf::115                 0                       # What read queue length does an incoming req see (Count)
system.far_mem_ctrl0.rdQLenPdf::116                 0                       # What read queue length does an incoming req see (Count)
system.far_mem_ctrl0.rdQLenPdf::117                 0                       # What read queue length does an incoming req see (Count)
system.far_mem_ctrl0.rdQLenPdf::118                 0                       # What read queue length does an incoming req see (Count)
system.far_mem_ctrl0.rdQLenPdf::119                 0                       # What read queue length does an incoming req see (Count)
system.far_mem_ctrl0.rdQLenPdf::120                 0                       # What read queue length does an incoming req see (Count)
system.far_mem_ctrl0.rdQLenPdf::121                 0                       # What read queue length does an incoming req see (Count)
system.far_mem_ctrl0.rdQLenPdf::122                 0                       # What read queue length does an incoming req see (Count)
system.far_mem_ctrl0.rdQLenPdf::123                 0                       # What read queue length does an incoming req see (Count)
system.far_mem_ctrl0.rdQLenPdf::124                 0                       # What read queue length does an incoming req see (Count)
system.far_mem_ctrl0.rdQLenPdf::125                 0                       # What read queue length does an incoming req see (Count)
system.far_mem_ctrl0.rdQLenPdf::126                 0                       # What read queue length does an incoming req see (Count)
system.far_mem_ctrl0.rdQLenPdf::127                 0                       # What read queue length does an incoming req see (Count)
system.far_mem_ctrl0.wrQLenPdf::0                   0                       # What write queue length does an incoming req see (Count)
system.far_mem_ctrl0.wrQLenPdf::1                   0                       # What write queue length does an incoming req see (Count)
system.far_mem_ctrl0.wrQLenPdf::2                   0                       # What write queue length does an incoming req see (Count)
system.far_mem_ctrl0.wrQLenPdf::3                   0                       # What write queue length does an incoming req see (Count)
system.far_mem_ctrl0.wrQLenPdf::4                   0                       # What write queue length does an incoming req see (Count)
system.far_mem_ctrl0.wrQLenPdf::5                   0                       # What write queue length does an incoming req see (Count)
system.far_mem_ctrl0.wrQLenPdf::6                   0                       # What write queue length does an incoming req see (Count)
system.far_mem_ctrl0.wrQLenPdf::7                   0                       # What write queue length does an incoming req see (Count)
system.far_mem_ctrl0.wrQLenPdf::8                   0                       # What write queue length does an incoming req see (Count)
system.far_mem_ctrl0.wrQLenPdf::9                   0                       # What write queue length does an incoming req see (Count)
system.far_mem_ctrl0.wrQLenPdf::10                  0                       # What write queue length does an incoming req see (Count)
system.far_mem_ctrl0.wrQLenPdf::11                  0                       # What write queue length does an incoming req see (Count)
system.far_mem_ctrl0.wrQLenPdf::12                  0                       # What write queue length does an incoming req see (Count)
system.far_mem_ctrl0.wrQLenPdf::13                  0                       # What write queue length does an incoming req see (Count)
system.far_mem_ctrl0.wrQLenPdf::14                  0                       # What write queue length does an incoming req see (Count)
system.far_mem_ctrl0.wrQLenPdf::15                  0                       # What write queue length does an incoming req see (Count)
system.far_mem_ctrl0.wrQLenPdf::16                  0                       # What write queue length does an incoming req see (Count)
system.far_mem_ctrl0.wrQLenPdf::17                  0                       # What write queue length does an incoming req see (Count)
system.far_mem_ctrl0.wrQLenPdf::18                  0                       # What write queue length does an incoming req see (Count)
system.far_mem_ctrl0.wrQLenPdf::19                  0                       # What write queue length does an incoming req see (Count)
system.far_mem_ctrl0.wrQLenPdf::20                  0                       # What write queue length does an incoming req see (Count)
system.far_mem_ctrl0.wrQLenPdf::21                  0                       # What write queue length does an incoming req see (Count)
system.far_mem_ctrl0.wrQLenPdf::22                  0                       # What write queue length does an incoming req see (Count)
system.far_mem_ctrl0.wrQLenPdf::23                  0                       # What write queue length does an incoming req see (Count)
system.far_mem_ctrl0.wrQLenPdf::24                  0                       # What write queue length does an incoming req see (Count)
system.far_mem_ctrl0.wrQLenPdf::25                  0                       # What write queue length does an incoming req see (Count)
system.far_mem_ctrl0.wrQLenPdf::26                  0                       # What write queue length does an incoming req see (Count)
system.far_mem_ctrl0.wrQLenPdf::27                  0                       # What write queue length does an incoming req see (Count)
system.far_mem_ctrl0.wrQLenPdf::28                  0                       # What write queue length does an incoming req see (Count)
system.far_mem_ctrl0.wrQLenPdf::29                  0                       # What write queue length does an incoming req see (Count)
system.far_mem_ctrl0.wrQLenPdf::30                  0                       # What write queue length does an incoming req see (Count)
system.far_mem_ctrl0.wrQLenPdf::31                  0                       # What write queue length does an incoming req see (Count)
system.far_mem_ctrl0.wrQLenPdf::32                  0                       # What write queue length does an incoming req see (Count)
system.far_mem_ctrl0.wrQLenPdf::33                  0                       # What write queue length does an incoming req see (Count)
system.far_mem_ctrl0.wrQLenPdf::34                  0                       # What write queue length does an incoming req see (Count)
system.far_mem_ctrl0.wrQLenPdf::35                  0                       # What write queue length does an incoming req see (Count)
system.far_mem_ctrl0.wrQLenPdf::36                  0                       # What write queue length does an incoming req see (Count)
system.far_mem_ctrl0.wrQLenPdf::37                  0                       # What write queue length does an incoming req see (Count)
system.far_mem_ctrl0.wrQLenPdf::38                  0                       # What write queue length does an incoming req see (Count)
system.far_mem_ctrl0.wrQLenPdf::39                  0                       # What write queue length does an incoming req see (Count)
system.far_mem_ctrl0.wrQLenPdf::40                  0                       # What write queue length does an incoming req see (Count)
system.far_mem_ctrl0.wrQLenPdf::41                  0                       # What write queue length does an incoming req see (Count)
system.far_mem_ctrl0.wrQLenPdf::42                  0                       # What write queue length does an incoming req see (Count)
system.far_mem_ctrl0.wrQLenPdf::43                  0                       # What write queue length does an incoming req see (Count)
system.far_mem_ctrl0.wrQLenPdf::44                  0                       # What write queue length does an incoming req see (Count)
system.far_mem_ctrl0.wrQLenPdf::45                  0                       # What write queue length does an incoming req see (Count)
system.far_mem_ctrl0.wrQLenPdf::46                  0                       # What write queue length does an incoming req see (Count)
system.far_mem_ctrl0.wrQLenPdf::47                  0                       # What write queue length does an incoming req see (Count)
system.far_mem_ctrl0.wrQLenPdf::48                  0                       # What write queue length does an incoming req see (Count)
system.far_mem_ctrl0.wrQLenPdf::49                  0                       # What write queue length does an incoming req see (Count)
system.far_mem_ctrl0.wrQLenPdf::50                  0                       # What write queue length does an incoming req see (Count)
system.far_mem_ctrl0.wrQLenPdf::51                  0                       # What write queue length does an incoming req see (Count)
system.far_mem_ctrl0.wrQLenPdf::52                  0                       # What write queue length does an incoming req see (Count)
system.far_mem_ctrl0.wrQLenPdf::53                  0                       # What write queue length does an incoming req see (Count)
system.far_mem_ctrl0.wrQLenPdf::54                  0                       # What write queue length does an incoming req see (Count)
system.far_mem_ctrl0.wrQLenPdf::55                  0                       # What write queue length does an incoming req see (Count)
system.far_mem_ctrl0.wrQLenPdf::56                  0                       # What write queue length does an incoming req see (Count)
system.far_mem_ctrl0.wrQLenPdf::57                  0                       # What write queue length does an incoming req see (Count)
system.far_mem_ctrl0.wrQLenPdf::58                  0                       # What write queue length does an incoming req see (Count)
system.far_mem_ctrl0.wrQLenPdf::59                  0                       # What write queue length does an incoming req see (Count)
system.far_mem_ctrl0.wrQLenPdf::60                  0                       # What write queue length does an incoming req see (Count)
system.far_mem_ctrl0.wrQLenPdf::61                  0                       # What write queue length does an incoming req see (Count)
system.far_mem_ctrl0.wrQLenPdf::62                  0                       # What write queue length does an incoming req see (Count)
system.far_mem_ctrl0.wrQLenPdf::63                  0                       # What write queue length does an incoming req see (Count)
system.far_mem_ctrl0.wrQLenPdf::64                  0                       # What write queue length does an incoming req see (Count)
system.far_mem_ctrl0.wrQLenPdf::65                  0                       # What write queue length does an incoming req see (Count)
system.far_mem_ctrl0.wrQLenPdf::66                  0                       # What write queue length does an incoming req see (Count)
system.far_mem_ctrl0.wrQLenPdf::67                  0                       # What write queue length does an incoming req see (Count)
system.far_mem_ctrl0.wrQLenPdf::68                  0                       # What write queue length does an incoming req see (Count)
system.far_mem_ctrl0.wrQLenPdf::69                  0                       # What write queue length does an incoming req see (Count)
system.far_mem_ctrl0.wrQLenPdf::70                  0                       # What write queue length does an incoming req see (Count)
system.far_mem_ctrl0.wrQLenPdf::71                  0                       # What write queue length does an incoming req see (Count)
system.far_mem_ctrl0.wrQLenPdf::72                  0                       # What write queue length does an incoming req see (Count)
system.far_mem_ctrl0.wrQLenPdf::73                  0                       # What write queue length does an incoming req see (Count)
system.far_mem_ctrl0.wrQLenPdf::74                  0                       # What write queue length does an incoming req see (Count)
system.far_mem_ctrl0.wrQLenPdf::75                  0                       # What write queue length does an incoming req see (Count)
system.far_mem_ctrl0.wrQLenPdf::76                  0                       # What write queue length does an incoming req see (Count)
system.far_mem_ctrl0.wrQLenPdf::77                  0                       # What write queue length does an incoming req see (Count)
system.far_mem_ctrl0.wrQLenPdf::78                  0                       # What write queue length does an incoming req see (Count)
system.far_mem_ctrl0.wrQLenPdf::79                  0                       # What write queue length does an incoming req see (Count)
system.far_mem_ctrl0.wrQLenPdf::80                  0                       # What write queue length does an incoming req see (Count)
system.far_mem_ctrl0.wrQLenPdf::81                  0                       # What write queue length does an incoming req see (Count)
system.far_mem_ctrl0.wrQLenPdf::82                  0                       # What write queue length does an incoming req see (Count)
system.far_mem_ctrl0.wrQLenPdf::83                  0                       # What write queue length does an incoming req see (Count)
system.far_mem_ctrl0.wrQLenPdf::84                  0                       # What write queue length does an incoming req see (Count)
system.far_mem_ctrl0.wrQLenPdf::85                  0                       # What write queue length does an incoming req see (Count)
system.far_mem_ctrl0.wrQLenPdf::86                  0                       # What write queue length does an incoming req see (Count)
system.far_mem_ctrl0.wrQLenPdf::87                  0                       # What write queue length does an incoming req see (Count)
system.far_mem_ctrl0.wrQLenPdf::88                  0                       # What write queue length does an incoming req see (Count)
system.far_mem_ctrl0.wrQLenPdf::89                  0                       # What write queue length does an incoming req see (Count)
system.far_mem_ctrl0.wrQLenPdf::90                  0                       # What write queue length does an incoming req see (Count)
system.far_mem_ctrl0.wrQLenPdf::91                  0                       # What write queue length does an incoming req see (Count)
system.far_mem_ctrl0.wrQLenPdf::92                  0                       # What write queue length does an incoming req see (Count)
system.far_mem_ctrl0.wrQLenPdf::93                  0                       # What write queue length does an incoming req see (Count)
system.far_mem_ctrl0.wrQLenPdf::94                  0                       # What write queue length does an incoming req see (Count)
system.far_mem_ctrl0.wrQLenPdf::95                  0                       # What write queue length does an incoming req see (Count)
system.far_mem_ctrl0.wrQLenPdf::96                  0                       # What write queue length does an incoming req see (Count)
system.far_mem_ctrl0.wrQLenPdf::97                  0                       # What write queue length does an incoming req see (Count)
system.far_mem_ctrl0.wrQLenPdf::98                  0                       # What write queue length does an incoming req see (Count)
system.far_mem_ctrl0.wrQLenPdf::99                  0                       # What write queue length does an incoming req see (Count)
system.far_mem_ctrl0.wrQLenPdf::100                 0                       # What write queue length does an incoming req see (Count)
system.far_mem_ctrl0.wrQLenPdf::101                 0                       # What write queue length does an incoming req see (Count)
system.far_mem_ctrl0.wrQLenPdf::102                 0                       # What write queue length does an incoming req see (Count)
system.far_mem_ctrl0.wrQLenPdf::103                 0                       # What write queue length does an incoming req see (Count)
system.far_mem_ctrl0.wrQLenPdf::104                 0                       # What write queue length does an incoming req see (Count)
system.far_mem_ctrl0.wrQLenPdf::105                 0                       # What write queue length does an incoming req see (Count)
system.far_mem_ctrl0.wrQLenPdf::106                 0                       # What write queue length does an incoming req see (Count)
system.far_mem_ctrl0.wrQLenPdf::107                 0                       # What write queue length does an incoming req see (Count)
system.far_mem_ctrl0.wrQLenPdf::108                 0                       # What write queue length does an incoming req see (Count)
system.far_mem_ctrl0.wrQLenPdf::109                 0                       # What write queue length does an incoming req see (Count)
system.far_mem_ctrl0.wrQLenPdf::110                 0                       # What write queue length does an incoming req see (Count)
system.far_mem_ctrl0.wrQLenPdf::111                 0                       # What write queue length does an incoming req see (Count)
system.far_mem_ctrl0.wrQLenPdf::112                 0                       # What write queue length does an incoming req see (Count)
system.far_mem_ctrl0.wrQLenPdf::113                 0                       # What write queue length does an incoming req see (Count)
system.far_mem_ctrl0.wrQLenPdf::114                 0                       # What write queue length does an incoming req see (Count)
system.far_mem_ctrl0.wrQLenPdf::115                 0                       # What write queue length does an incoming req see (Count)
system.far_mem_ctrl0.wrQLenPdf::116                 0                       # What write queue length does an incoming req see (Count)
system.far_mem_ctrl0.wrQLenPdf::117                 0                       # What write queue length does an incoming req see (Count)
system.far_mem_ctrl0.wrQLenPdf::118                 0                       # What write queue length does an incoming req see (Count)
system.far_mem_ctrl0.wrQLenPdf::119                 0                       # What write queue length does an incoming req see (Count)
system.far_mem_ctrl0.wrQLenPdf::120                 0                       # What write queue length does an incoming req see (Count)
system.far_mem_ctrl0.wrQLenPdf::121                 0                       # What write queue length does an incoming req see (Count)
system.far_mem_ctrl0.wrQLenPdf::122                 0                       # What write queue length does an incoming req see (Count)
system.far_mem_ctrl0.wrQLenPdf::123                 0                       # What write queue length does an incoming req see (Count)
system.far_mem_ctrl0.wrQLenPdf::124                 0                       # What write queue length does an incoming req see (Count)
system.far_mem_ctrl0.wrQLenPdf::125                 0                       # What write queue length does an incoming req see (Count)
system.far_mem_ctrl0.wrQLenPdf::126                 0                       # What write queue length does an incoming req see (Count)
system.far_mem_ctrl0.wrQLenPdf::127                 0                       # What write queue length does an incoming req see (Count)
system.far_mem_ctrl0.bytesReadWrQ                   0                       # Total number of bytes read from write queue (Byte)
system.far_mem_ctrl0.bytesReadSys             1077696                       # Total read bytes from the system interface side (Byte)
system.far_mem_ctrl0.bytesWrittenSys                0                       # Total written bytes from the system interface side (Byte)
system.far_mem_ctrl0.avgRdBWSys          1077696000.00000000                       # Average system read bandwidth in Byte/s ((Byte/Second))
system.far_mem_ctrl0.avgWrBWSys            0.00000000                       # Average system write bandwidth in Byte/s ((Byte/Second))
system.far_mem_ctrl0.totGap                 999906736                       # Total gap between requests (Tick)
system.far_mem_ctrl0.avgGap                  59380.41                       # Average gap between requests ((Tick/Count))
system.far_mem_ctrl0.requestorReadBytes::writebacks      1077696                       # Per-requestor bytes read from memory (Byte)
system.far_mem_ctrl0.requestorReadRate::writebacks 1077696000.000000000000                       # Per-requestor bytes read from memory rate ((Byte/Second))
system.far_mem_ctrl0.requestorReadAccesses::writebacks        16839                       # Per-requestor read serviced memory accesses (Count)
system.far_mem_ctrl0.requestorReadTotalLat::writebacks    898899018                       # Per-requestor read total memory access latency (Tick)
system.far_mem_ctrl0.requestorReadAvgLat::writebacks     53381.97                       # Per-requestor read average memory access latency ((Tick/Count))
system.far_mem_ctrl0.dram.bytesRead::writebacks      1077632                       # Number of bytes read from this memory (Byte)
system.far_mem_ctrl0.dram.bytesRead::total      1077632                       # Number of bytes read from this memory (Byte)
system.far_mem_ctrl0.dram.numReads::writebacks        16838                       # Number of read requests responded to by this memory (Count)
system.far_mem_ctrl0.dram.numReads::total        16838                       # Number of read requests responded to by this memory (Count)
system.far_mem_ctrl0.dram.bwRead::writebacks   1077632000                       # Total read bandwidth from this memory ((Byte/Second))
system.far_mem_ctrl0.dram.bwRead::total    1077632000                       # Total read bandwidth from this memory ((Byte/Second))
system.far_mem_ctrl0.dram.bwTotal::writebacks   1077632000                       # Total bandwidth to/from this memory ((Byte/Second))
system.far_mem_ctrl0.dram.bwTotal::total   1077632000                       # Total bandwidth to/from this memory ((Byte/Second))
system.far_mem_ctrl0.dram.readBursts            16839                       # Number of DRAM read bursts (Count)
system.far_mem_ctrl0.dram.writeBursts               0                       # Number of DRAM write bursts (Count)
system.far_mem_ctrl0.dram.perBankRdBursts::0         1098                       # Per bank write bursts (Count)
system.far_mem_ctrl0.dram.perBankRdBursts::1         1067                       # Per bank write bursts (Count)
system.far_mem_ctrl0.dram.perBankRdBursts::2         1018                       # Per bank write bursts (Count)
system.far_mem_ctrl0.dram.perBankRdBursts::3         1079                       # Per bank write bursts (Count)
system.far_mem_ctrl0.dram.perBankRdBursts::4         1051                       # Per bank write bursts (Count)
system.far_mem_ctrl0.dram.perBankRdBursts::5         1046                       # Per bank write bursts (Count)
system.far_mem_ctrl0.dram.perBankRdBursts::6         1007                       # Per bank write bursts (Count)
system.far_mem_ctrl0.dram.perBankRdBursts::7         1014                       # Per bank write bursts (Count)
system.far_mem_ctrl0.dram.perBankRdBursts::8         1050                       # Per bank write bursts (Count)
system.far_mem_ctrl0.dram.perBankRdBursts::9         1041                       # Per bank write bursts (Count)
system.far_mem_ctrl0.dram.perBankRdBursts::10         1054                       # Per bank write bursts (Count)
system.far_mem_ctrl0.dram.perBankRdBursts::11         1121                       # Per bank write bursts (Count)
system.far_mem_ctrl0.dram.perBankRdBursts::12         1076                       # Per bank write bursts (Count)
system.far_mem_ctrl0.dram.perBankRdBursts::13         1062                       # Per bank write bursts (Count)
system.far_mem_ctrl0.dram.perBankRdBursts::14         1023                       # Per bank write bursts (Count)
system.far_mem_ctrl0.dram.perBankRdBursts::15         1032                       # Per bank write bursts (Count)
system.far_mem_ctrl0.dram.perBankWrBursts::0            0                       # Per bank write bursts (Count)
system.far_mem_ctrl0.dram.perBankWrBursts::1            0                       # Per bank write bursts (Count)
system.far_mem_ctrl0.dram.perBankWrBursts::2            0                       # Per bank write bursts (Count)
system.far_mem_ctrl0.dram.perBankWrBursts::3            0                       # Per bank write bursts (Count)
system.far_mem_ctrl0.dram.perBankWrBursts::4            0                       # Per bank write bursts (Count)
system.far_mem_ctrl0.dram.perBankWrBursts::5            0                       # Per bank write bursts (Count)
system.far_mem_ctrl0.dram.perBankWrBursts::6            0                       # Per bank write bursts (Count)
system.far_mem_ctrl0.dram.perBankWrBursts::7            0                       # Per bank write bursts (Count)
system.far_mem_ctrl0.dram.perBankWrBursts::8            0                       # Per bank write bursts (Count)
system.far_mem_ctrl0.dram.perBankWrBursts::9            0                       # Per bank write bursts (Count)
system.far_mem_ctrl0.dram.perBankWrBursts::10            0                       # Per bank write bursts (Count)
system.far_mem_ctrl0.dram.perBankWrBursts::11            0                       # Per bank write bursts (Count)
system.far_mem_ctrl0.dram.perBankWrBursts::12            0                       # Per bank write bursts (Count)
system.far_mem_ctrl0.dram.perBankWrBursts::13            0                       # Per bank write bursts (Count)
system.far_mem_ctrl0.dram.perBankWrBursts::14            0                       # Per bank write bursts (Count)
system.far_mem_ctrl0.dram.perBankWrBursts::15            0                       # Per bank write bursts (Count)
system.far_mem_ctrl0.dram.totQLat           583167768                       # Total ticks spent queuing (Tick)
system.far_mem_ctrl0.dram.totBusLat          84195000                       # Total ticks spent in databus transfers (Tick)
system.far_mem_ctrl0.dram.totMemAccLat      898899018                       # Total ticks spent from burst creation until serviced by the DRAM (Tick)
system.far_mem_ctrl0.dram.avgQLat            34631.97                       # Average queueing delay per DRAM burst ((Tick/Count))
system.far_mem_ctrl0.dram.avgBusLat           5000.00                       # Average bus latency per DRAM burst ((Tick/Count))
system.far_mem_ctrl0.dram.avgMemAccLat       53381.97                       # Average memory access latency per DRAM burst ((Tick/Count))
system.far_mem_ctrl0.dram.readRowHits               0                       # Number of row buffer hits during reads (Count)
system.far_mem_ctrl0.dram.writeRowHits              0                       # Number of row buffer hits during writes (Count)
system.far_mem_ctrl0.dram.readRowHitRate         0.00                       # Row buffer hit rate for reads (Ratio)
system.far_mem_ctrl0.dram.writeRowHitRate          nan                       # Row buffer hit rate for writes (Ratio)
system.far_mem_ctrl0.dram.bytesPerActivate::samples        16823                       # Bytes accessed per row activation (Byte)
system.far_mem_ctrl0.dram.bytesPerActivate::mean           64                       # Bytes accessed per row activation (Byte)
system.far_mem_ctrl0.dram.bytesPerActivate::gmean    64.000000                       # Bytes accessed per row activation (Byte)
system.far_mem_ctrl0.dram.bytesPerActivate::64-71        16823    100.00%    100.00% # Bytes accessed per row activation (Byte)
system.far_mem_ctrl0.dram.bytesPerActivate::total        16823                       # Bytes accessed per row activation (Byte)
system.far_mem_ctrl0.dram.bytesRead           1077696                       # Total bytes read (Byte)
system.far_mem_ctrl0.dram.bytesWritten              0                       # Total bytes written (Byte)
system.far_mem_ctrl0.dram.avgRdBW         1077.696000                       # Average DRAM read bandwidth in MiBytes/s ((Byte/Second))
system.far_mem_ctrl0.dram.avgWrBW                   0                       # Average DRAM write bandwidth in MiBytes/s ((Byte/Second))
system.far_mem_ctrl0.dram.peakBW             12800.00                       # Theoretical peak bandwidth in MiByte/s ((Byte/Second))
system.far_mem_ctrl0.dram.busUtil                8.42                       # Data bus utilization in percentage (Ratio)
system.far_mem_ctrl0.dram.busUtilRead            8.42                       # Data bus utilization in percentage for reads (Ratio)
system.far_mem_ctrl0.dram.busUtilWrite           0.00                       # Data bus utilization in percentage for writes (Ratio)
system.far_mem_ctrl0.dram.pageHitRate            0.00                       # Row buffer hit rate, read and write combined (Ratio)
system.far_mem_ctrl0.dram.power_state.pwrStateResidencyTicks::UNDEFINED   1000000000                       # Cumulative time (in ticks) in various power states (Tick)
system.far_mem_ctrl0.dram.rank0.actEnergy     59826060                       # Energy for activate commands per rank (pJ) (Joule)
system.far_mem_ctrl0.dram.rank0.preEnergy     31771740                       # Energy for precharge commands per rank (pJ) (Joule)
system.far_mem_ctrl0.dram.rank0.readEnergy     59826060                       # Energy for read commands per rank (pJ) (Joule)
system.far_mem_ctrl0.dram.rank0.writeEnergy            0                       # Energy for write commands per rank (pJ) (Joule)
system.far_mem_ctrl0.dram.rank0.refreshEnergy 78673920.000000                       # Energy for refresh commands per rank (pJ) (Joule)
system.far_mem_ctrl0.dram.rank0.actBackEnergy    453551280                       # Energy for active background per rank (pJ) (Joule)
system.far_mem_ctrl0.dram.rank0.preBackEnergy      2062080                       # Energy for precharge background per rank (pJ) (Joule)
system.far_mem_ctrl0.dram.rank0.actPowerDownEnergy            0                       # Energy for active power-down per rank (pJ) (Joule)
system.far_mem_ctrl0.dram.rank0.prePowerDownEnergy            0                       # Energy for precharge power-down per rank (pJ) (Joule)
system.far_mem_ctrl0.dram.rank0.selfRefreshEnergy            0                       # Energy for self refresh per rank (pJ) (Joule)
system.far_mem_ctrl0.dram.rank0.totalEnergy    685711140                       # Total energy per rank (pJ) (Joule)
system.far_mem_ctrl0.dram.rank0.averagePower   685.711140                       # Core power per rank (mW) (Watt)
system.far_mem_ctrl0.dram.rank0.totalIdleTime            0                       # Total Idle time Per DRAM Rank (Tick)
system.far_mem_ctrl0.dram.rank0.pwrStateTime::IDLE      1676638                       # Time in different power states (Tick)
system.far_mem_ctrl0.dram.rank0.pwrStateTime::REF     33280000                       # Time in different power states (Tick)
system.far_mem_ctrl0.dram.rank0.pwrStateTime::SREF            0                       # Time in different power states (Tick)
system.far_mem_ctrl0.dram.rank0.pwrStateTime::PRE_PDN            0                       # Time in different power states (Tick)
system.far_mem_ctrl0.dram.rank0.pwrStateTime::ACT    965043362                       # Time in different power states (Tick)
system.far_mem_ctrl0.dram.rank0.pwrStateTime::ACT_PDN            0                       # Time in different power states (Tick)
system.far_mem_ctrl0.dram.rank1.actEnergy     60397260                       # Energy for activate commands per rank (pJ) (Joule)
system.far_mem_ctrl0.dram.rank1.preEnergy     32071545                       # Energy for precharge commands per rank (pJ) (Joule)
system.far_mem_ctrl0.dram.rank1.readEnergy     60397260                       # Energy for read commands per rank (pJ) (Joule)
system.far_mem_ctrl0.dram.rank1.writeEnergy            0                       # Energy for write commands per rank (pJ) (Joule)
system.far_mem_ctrl0.dram.rank1.refreshEnergy 78673920.000000                       # Energy for refresh commands per rank (pJ) (Joule)
system.far_mem_ctrl0.dram.rank1.actBackEnergy    453466920                       # Energy for active background per rank (pJ) (Joule)
system.far_mem_ctrl0.dram.rank1.preBackEnergy      2133120                       # Energy for precharge background per rank (pJ) (Joule)
system.far_mem_ctrl0.dram.rank1.actPowerDownEnergy            0                       # Energy for active power-down per rank (pJ) (Joule)
system.far_mem_ctrl0.dram.rank1.prePowerDownEnergy            0                       # Energy for precharge power-down per rank (pJ) (Joule)
system.far_mem_ctrl0.dram.rank1.selfRefreshEnergy            0                       # Energy for self refresh per rank (pJ) (Joule)
system.far_mem_ctrl0.dram.rank1.totalEnergy    687140025                       # Total energy per rank (pJ) (Joule)
system.far_mem_ctrl0.dram.rank1.averagePower   687.140025                       # Core power per rank (mW) (Watt)
system.far_mem_ctrl0.dram.rank1.totalIdleTime            0                       # Total Idle time Per DRAM Rank (Tick)
system.far_mem_ctrl0.dram.rank1.pwrStateTime::IDLE      1856252                       # Time in different power states (Tick)
system.far_mem_ctrl0.dram.rank1.pwrStateTime::REF     33280000                       # Time in different power states (Tick)
system.far_mem_ctrl0.dram.rank1.pwrStateTime::SREF            0                       # Time in different power states (Tick)
system.far_mem_ctrl0.dram.rank1.pwrStateTime::PRE_PDN            0                       # Time in different power states (Tick)
system.far_mem_ctrl0.dram.rank1.pwrStateTime::ACT    964863748                       # Time in different power states (Tick)
system.far_mem_ctrl0.dram.rank1.pwrStateTime::ACT_PDN            0                       # Time in different power states (Tick)
system.far_mem_ctrl0.power_state.pwrStateResidencyTicks::UNDEFINED   1000000000                       # Cumulative time (in ticks) in various power states (Tick)
system.far_mem_ctrl1.avgPriority_writebacks::samples     16662.00                       # Average QoS priority value for accepted requests (Count)
system.far_mem_ctrl1.priorityMinLatency  0.000000032500                       # per QoS priority minimum request to response latency (Second)
system.far_mem_ctrl1.priorityMaxLatency  0.000000684438                       # per QoS priority maximum request to response latency (Second)
system.far_mem_ctrl1.numReadWriteTurnArounds            0                       # Number of turnarounds from READ to WRITE (Count)
system.far_mem_ctrl1.numWriteReadTurnArounds            0                       # Number of turnarounds from WRITE to READ (Count)
system.far_mem_ctrl1.numStayReadState           30377                       # Number of times bus staying in READ state (Count)
system.far_mem_ctrl1.numStayWriteState              0                       # Number of times bus staying in WRITE state (Count)
system.far_mem_ctrl1.readReqs                   16662                       # Number of read requests accepted (Count)
system.far_mem_ctrl1.writeReqs                      0                       # Number of write requests accepted (Count)
system.far_mem_ctrl1.readBursts                 16662                       # Number of controller read bursts, including those serviced by the write queue (Count)
system.far_mem_ctrl1.writeBursts                    0                       # Number of controller write bursts, including those merged in the write queue (Count)
system.far_mem_ctrl1.servicedByWrQ                  0                       # Number of controller read bursts serviced by the write queue (Count)
system.far_mem_ctrl1.mergedWrBursts                 0                       # Number of controller write bursts merged with an existing one (Count)
system.far_mem_ctrl1.neitherReadNorWriteReqs            0                       # Number of requests that are neither read nor write (Count)
system.far_mem_ctrl1.avgRdQLen                   1.93                       # Average read queue length when enqueuing ((Count/Tick))
system.far_mem_ctrl1.avgWrQLen                   0.00                       # Average write queue length when enqueuing ((Count/Tick))
system.far_mem_ctrl1.numRdRetry                     0                       # Number of times read queue was full causing retry (Count)
system.far_mem_ctrl1.numWrRetry                     0                       # Number of times write queue was full causing retry (Count)
system.far_mem_ctrl1.readPktSize::0                 0                       # Read request sizes (log2) (Count)
system.far_mem_ctrl1.readPktSize::1                 0                       # Read request sizes (log2) (Count)
system.far_mem_ctrl1.readPktSize::2                 0                       # Read request sizes (log2) (Count)
system.far_mem_ctrl1.readPktSize::3                 0                       # Read request sizes (log2) (Count)
system.far_mem_ctrl1.readPktSize::4                 0                       # Read request sizes (log2) (Count)
system.far_mem_ctrl1.readPktSize::5                 0                       # Read request sizes (log2) (Count)
system.far_mem_ctrl1.readPktSize::6             16662                       # Read request sizes (log2) (Count)
system.far_mem_ctrl1.writePktSize::0                0                       # Write request sizes (log2) (Count)
system.far_mem_ctrl1.writePktSize::1                0                       # Write request sizes (log2) (Count)
system.far_mem_ctrl1.writePktSize::2                0                       # Write request sizes (log2) (Count)
system.far_mem_ctrl1.writePktSize::3                0                       # Write request sizes (log2) (Count)
system.far_mem_ctrl1.writePktSize::4                0                       # Write request sizes (log2) (Count)
system.far_mem_ctrl1.writePktSize::5                0                       # Write request sizes (log2) (Count)
system.far_mem_ctrl1.writePktSize::6                0                       # Write request sizes (log2) (Count)
system.far_mem_ctrl1.rdQLenPdf::0                6932                       # What read queue length does an incoming req see (Count)
system.far_mem_ctrl1.rdQLenPdf::1                5985                       # What read queue length does an incoming req see (Count)
system.far_mem_ctrl1.rdQLenPdf::2                2381                       # What read queue length does an incoming req see (Count)
system.far_mem_ctrl1.rdQLenPdf::3                 823                       # What read queue length does an incoming req see (Count)
system.far_mem_ctrl1.rdQLenPdf::4                 310                       # What read queue length does an incoming req see (Count)
system.far_mem_ctrl1.rdQLenPdf::5                 130                       # What read queue length does an incoming req see (Count)
system.far_mem_ctrl1.rdQLenPdf::6                  56                       # What read queue length does an incoming req see (Count)
system.far_mem_ctrl1.rdQLenPdf::7                  27                       # What read queue length does an incoming req see (Count)
system.far_mem_ctrl1.rdQLenPdf::8                   8                       # What read queue length does an incoming req see (Count)
system.far_mem_ctrl1.rdQLenPdf::9                   6                       # What read queue length does an incoming req see (Count)
system.far_mem_ctrl1.rdQLenPdf::10                  2                       # What read queue length does an incoming req see (Count)
system.far_mem_ctrl1.rdQLenPdf::11                  1                       # What read queue length does an incoming req see (Count)
system.far_mem_ctrl1.rdQLenPdf::12                  1                       # What read queue length does an incoming req see (Count)
system.far_mem_ctrl1.rdQLenPdf::13                  0                       # What read queue length does an incoming req see (Count)
system.far_mem_ctrl1.rdQLenPdf::14                  0                       # What read queue length does an incoming req see (Count)
system.far_mem_ctrl1.rdQLenPdf::15                  0                       # What read queue length does an incoming req see (Count)
system.far_mem_ctrl1.rdQLenPdf::16                  0                       # What read queue length does an incoming req see (Count)
system.far_mem_ctrl1.rdQLenPdf::17                  0                       # What read queue length does an incoming req see (Count)
system.far_mem_ctrl1.rdQLenPdf::18                  0                       # What read queue length does an incoming req see (Count)
system.far_mem_ctrl1.rdQLenPdf::19                  0                       # What read queue length does an incoming req see (Count)
system.far_mem_ctrl1.rdQLenPdf::20                  0                       # What read queue length does an incoming req see (Count)
system.far_mem_ctrl1.rdQLenPdf::21                  0                       # What read queue length does an incoming req see (Count)
system.far_mem_ctrl1.rdQLenPdf::22                  0                       # What read queue length does an incoming req see (Count)
system.far_mem_ctrl1.rdQLenPdf::23                  0                       # What read queue length does an incoming req see (Count)
system.far_mem_ctrl1.rdQLenPdf::24                  0                       # What read queue length does an incoming req see (Count)
system.far_mem_ctrl1.rdQLenPdf::25                  0                       # What read queue length does an incoming req see (Count)
system.far_mem_ctrl1.rdQLenPdf::26                  0                       # What read queue length does an incoming req see (Count)
system.far_mem_ctrl1.rdQLenPdf::27                  0                       # What read queue length does an incoming req see (Count)
system.far_mem_ctrl1.rdQLenPdf::28                  0                       # What read queue length does an incoming req see (Count)
system.far_mem_ctrl1.rdQLenPdf::29                  0                       # What read queue length does an incoming req see (Count)
system.far_mem_ctrl1.rdQLenPdf::30                  0                       # What read queue length does an incoming req see (Count)
system.far_mem_ctrl1.rdQLenPdf::31                  0                       # What read queue length does an incoming req see (Count)
system.far_mem_ctrl1.rdQLenPdf::32                  0                       # What read queue length does an incoming req see (Count)
system.far_mem_ctrl1.rdQLenPdf::33                  0                       # What read queue length does an incoming req see (Count)
system.far_mem_ctrl1.rdQLenPdf::34                  0                       # What read queue length does an incoming req see (Count)
system.far_mem_ctrl1.rdQLenPdf::35                  0                       # What read queue length does an incoming req see (Count)
system.far_mem_ctrl1.rdQLenPdf::36                  0                       # What read queue length does an incoming req see (Count)
system.far_mem_ctrl1.rdQLenPdf::37                  0                       # What read queue length does an incoming req see (Count)
system.far_mem_ctrl1.rdQLenPdf::38                  0                       # What read queue length does an incoming req see (Count)
system.far_mem_ctrl1.rdQLenPdf::39                  0                       # What read queue length does an incoming req see (Count)
system.far_mem_ctrl1.rdQLenPdf::40                  0                       # What read queue length does an incoming req see (Count)
system.far_mem_ctrl1.rdQLenPdf::41                  0                       # What read queue length does an incoming req see (Count)
system.far_mem_ctrl1.rdQLenPdf::42                  0                       # What read queue length does an incoming req see (Count)
system.far_mem_ctrl1.rdQLenPdf::43                  0                       # What read queue length does an incoming req see (Count)
system.far_mem_ctrl1.rdQLenPdf::44                  0                       # What read queue length does an incoming req see (Count)
system.far_mem_ctrl1.rdQLenPdf::45                  0                       # What read queue length does an incoming req see (Count)
system.far_mem_ctrl1.rdQLenPdf::46                  0                       # What read queue length does an incoming req see (Count)
system.far_mem_ctrl1.rdQLenPdf::47                  0                       # What read queue length does an incoming req see (Count)
system.far_mem_ctrl1.rdQLenPdf::48                  0                       # What read queue length does an incoming req see (Count)
system.far_mem_ctrl1.rdQLenPdf::49                  0                       # What read queue length does an incoming req see (Count)
system.far_mem_ctrl1.rdQLenPdf::50                  0                       # What read queue length does an incoming req see (Count)
system.far_mem_ctrl1.rdQLenPdf::51                  0                       # What read queue length does an incoming req see (Count)
system.far_mem_ctrl1.rdQLenPdf::52                  0                       # What read queue length does an incoming req see (Count)
system.far_mem_ctrl1.rdQLenPdf::53                  0                       # What read queue length does an incoming req see (Count)
system.far_mem_ctrl1.rdQLenPdf::54                  0                       # What read queue length does an incoming req see (Count)
system.far_mem_ctrl1.rdQLenPdf::55                  0                       # What read queue length does an incoming req see (Count)
system.far_mem_ctrl1.rdQLenPdf::56                  0                       # What read queue length does an incoming req see (Count)
system.far_mem_ctrl1.rdQLenPdf::57                  0                       # What read queue length does an incoming req see (Count)
system.far_mem_ctrl1.rdQLenPdf::58                  0                       # What read queue length does an incoming req see (Count)
system.far_mem_ctrl1.rdQLenPdf::59                  0                       # What read queue length does an incoming req see (Count)
system.far_mem_ctrl1.rdQLenPdf::60                  0                       # What read queue length does an incoming req see (Count)
system.far_mem_ctrl1.rdQLenPdf::61                  0                       # What read queue length does an incoming req see (Count)
system.far_mem_ctrl1.rdQLenPdf::62                  0                       # What read queue length does an incoming req see (Count)
system.far_mem_ctrl1.rdQLenPdf::63                  0                       # What read queue length does an incoming req see (Count)
system.far_mem_ctrl1.rdQLenPdf::64                  0                       # What read queue length does an incoming req see (Count)
system.far_mem_ctrl1.rdQLenPdf::65                  0                       # What read queue length does an incoming req see (Count)
system.far_mem_ctrl1.rdQLenPdf::66                  0                       # What read queue length does an incoming req see (Count)
system.far_mem_ctrl1.rdQLenPdf::67                  0                       # What read queue length does an incoming req see (Count)
system.far_mem_ctrl1.rdQLenPdf::68                  0                       # What read queue length does an incoming req see (Count)
system.far_mem_ctrl1.rdQLenPdf::69                  0                       # What read queue length does an incoming req see (Count)
system.far_mem_ctrl1.rdQLenPdf::70                  0                       # What read queue length does an incoming req see (Count)
system.far_mem_ctrl1.rdQLenPdf::71                  0                       # What read queue length does an incoming req see (Count)
system.far_mem_ctrl1.rdQLenPdf::72                  0                       # What read queue length does an incoming req see (Count)
system.far_mem_ctrl1.rdQLenPdf::73                  0                       # What read queue length does an incoming req see (Count)
system.far_mem_ctrl1.rdQLenPdf::74                  0                       # What read queue length does an incoming req see (Count)
system.far_mem_ctrl1.rdQLenPdf::75                  0                       # What read queue length does an incoming req see (Count)
system.far_mem_ctrl1.rdQLenPdf::76                  0                       # What read queue length does an incoming req see (Count)
system.far_mem_ctrl1.rdQLenPdf::77                  0                       # What read queue length does an incoming req see (Count)
system.far_mem_ctrl1.rdQLenPdf::78                  0                       # What read queue length does an incoming req see (Count)
system.far_mem_ctrl1.rdQLenPdf::79                  0                       # What read queue length does an incoming req see (Count)
system.far_mem_ctrl1.rdQLenPdf::80                  0                       # What read queue length does an incoming req see (Count)
system.far_mem_ctrl1.rdQLenPdf::81                  0                       # What read queue length does an incoming req see (Count)
system.far_mem_ctrl1.rdQLenPdf::82                  0                       # What read queue length does an incoming req see (Count)
system.far_mem_ctrl1.rdQLenPdf::83                  0                       # What read queue length does an incoming req see (Count)
system.far_mem_ctrl1.rdQLenPdf::84                  0                       # What read queue length does an incoming req see (Count)
system.far_mem_ctrl1.rdQLenPdf::85                  0                       # What read queue length does an incoming req see (Count)
system.far_mem_ctrl1.rdQLenPdf::86                  0                       # What read queue length does an incoming req see (Count)
system.far_mem_ctrl1.rdQLenPdf::87                  0                       # What read queue length does an incoming req see (Count)
system.far_mem_ctrl1.rdQLenPdf::88                  0                       # What read queue length does an incoming req see (Count)
system.far_mem_ctrl1.rdQLenPdf::89                  0                       # What read queue length does an incoming req see (Count)
system.far_mem_ctrl1.rdQLenPdf::90                  0                       # What read queue length does an incoming req see (Count)
system.far_mem_ctrl1.rdQLenPdf::91                  0                       # What read queue length does an incoming req see (Count)
system.far_mem_ctrl1.rdQLenPdf::92                  0                       # What read queue length does an incoming req see (Count)
system.far_mem_ctrl1.rdQLenPdf::93                  0                       # What read queue length does an incoming req see (Count)
system.far_mem_ctrl1.rdQLenPdf::94                  0                       # What read queue length does an incoming req see (Count)
system.far_mem_ctrl1.rdQLenPdf::95                  0                       # What read queue length does an incoming req see (Count)
system.far_mem_ctrl1.rdQLenPdf::96                  0                       # What read queue length does an incoming req see (Count)
system.far_mem_ctrl1.rdQLenPdf::97                  0                       # What read queue length does an incoming req see (Count)
system.far_mem_ctrl1.rdQLenPdf::98                  0                       # What read queue length does an incoming req see (Count)
system.far_mem_ctrl1.rdQLenPdf::99                  0                       # What read queue length does an incoming req see (Count)
system.far_mem_ctrl1.rdQLenPdf::100                 0                       # What read queue length does an incoming req see (Count)
system.far_mem_ctrl1.rdQLenPdf::101                 0                       # What read queue length does an incoming req see (Count)
system.far_mem_ctrl1.rdQLenPdf::102                 0                       # What read queue length does an incoming req see (Count)
system.far_mem_ctrl1.rdQLenPdf::103                 0                       # What read queue length does an incoming req see (Count)
system.far_mem_ctrl1.rdQLenPdf::104                 0                       # What read queue length does an incoming req see (Count)
system.far_mem_ctrl1.rdQLenPdf::105                 0                       # What read queue length does an incoming req see (Count)
system.far_mem_ctrl1.rdQLenPdf::106                 0                       # What read queue length does an incoming req see (Count)
system.far_mem_ctrl1.rdQLenPdf::107                 0                       # What read queue length does an incoming req see (Count)
system.far_mem_ctrl1.rdQLenPdf::108                 0                       # What read queue length does an incoming req see (Count)
system.far_mem_ctrl1.rdQLenPdf::109                 0                       # What read queue length does an incoming req see (Count)
system.far_mem_ctrl1.rdQLenPdf::110                 0                       # What read queue length does an incoming req see (Count)
system.far_mem_ctrl1.rdQLenPdf::111                 0                       # What read queue length does an incoming req see (Count)
system.far_mem_ctrl1.rdQLenPdf::112                 0                       # What read queue length does an incoming req see (Count)
system.far_mem_ctrl1.rdQLenPdf::113                 0                       # What read queue length does an incoming req see (Count)
system.far_mem_ctrl1.rdQLenPdf::114                 0                       # What read queue length does an incoming req see (Count)
system.far_mem_ctrl1.rdQLenPdf::115                 0                       # What read queue length does an incoming req see (Count)
system.far_mem_ctrl1.rdQLenPdf::116                 0                       # What read queue length does an incoming req see (Count)
system.far_mem_ctrl1.rdQLenPdf::117                 0                       # What read queue length does an incoming req see (Count)
system.far_mem_ctrl1.rdQLenPdf::118                 0                       # What read queue length does an incoming req see (Count)
system.far_mem_ctrl1.rdQLenPdf::119                 0                       # What read queue length does an incoming req see (Count)
system.far_mem_ctrl1.rdQLenPdf::120                 0                       # What read queue length does an incoming req see (Count)
system.far_mem_ctrl1.rdQLenPdf::121                 0                       # What read queue length does an incoming req see (Count)
system.far_mem_ctrl1.rdQLenPdf::122                 0                       # What read queue length does an incoming req see (Count)
system.far_mem_ctrl1.rdQLenPdf::123                 0                       # What read queue length does an incoming req see (Count)
system.far_mem_ctrl1.rdQLenPdf::124                 0                       # What read queue length does an incoming req see (Count)
system.far_mem_ctrl1.rdQLenPdf::125                 0                       # What read queue length does an incoming req see (Count)
system.far_mem_ctrl1.rdQLenPdf::126                 0                       # What read queue length does an incoming req see (Count)
system.far_mem_ctrl1.rdQLenPdf::127                 0                       # What read queue length does an incoming req see (Count)
system.far_mem_ctrl1.wrQLenPdf::0                   0                       # What write queue length does an incoming req see (Count)
system.far_mem_ctrl1.wrQLenPdf::1                   0                       # What write queue length does an incoming req see (Count)
system.far_mem_ctrl1.wrQLenPdf::2                   0                       # What write queue length does an incoming req see (Count)
system.far_mem_ctrl1.wrQLenPdf::3                   0                       # What write queue length does an incoming req see (Count)
system.far_mem_ctrl1.wrQLenPdf::4                   0                       # What write queue length does an incoming req see (Count)
system.far_mem_ctrl1.wrQLenPdf::5                   0                       # What write queue length does an incoming req see (Count)
system.far_mem_ctrl1.wrQLenPdf::6                   0                       # What write queue length does an incoming req see (Count)
system.far_mem_ctrl1.wrQLenPdf::7                   0                       # What write queue length does an incoming req see (Count)
system.far_mem_ctrl1.wrQLenPdf::8                   0                       # What write queue length does an incoming req see (Count)
system.far_mem_ctrl1.wrQLenPdf::9                   0                       # What write queue length does an incoming req see (Count)
system.far_mem_ctrl1.wrQLenPdf::10                  0                       # What write queue length does an incoming req see (Count)
system.far_mem_ctrl1.wrQLenPdf::11                  0                       # What write queue length does an incoming req see (Count)
system.far_mem_ctrl1.wrQLenPdf::12                  0                       # What write queue length does an incoming req see (Count)
system.far_mem_ctrl1.wrQLenPdf::13                  0                       # What write queue length does an incoming req see (Count)
system.far_mem_ctrl1.wrQLenPdf::14                  0                       # What write queue length does an incoming req see (Count)
system.far_mem_ctrl1.wrQLenPdf::15                  0                       # What write queue length does an incoming req see (Count)
system.far_mem_ctrl1.wrQLenPdf::16                  0                       # What write queue length does an incoming req see (Count)
system.far_mem_ctrl1.wrQLenPdf::17                  0                       # What write queue length does an incoming req see (Count)
system.far_mem_ctrl1.wrQLenPdf::18                  0                       # What write queue length does an incoming req see (Count)
system.far_mem_ctrl1.wrQLenPdf::19                  0                       # What write queue length does an incoming req see (Count)
system.far_mem_ctrl1.wrQLenPdf::20                  0                       # What write queue length does an incoming req see (Count)
system.far_mem_ctrl1.wrQLenPdf::21                  0                       # What write queue length does an incoming req see (Count)
system.far_mem_ctrl1.wrQLenPdf::22                  0                       # What write queue length does an incoming req see (Count)
system.far_mem_ctrl1.wrQLenPdf::23                  0                       # What write queue length does an incoming req see (Count)
system.far_mem_ctrl1.wrQLenPdf::24                  0                       # What write queue length does an incoming req see (Count)
system.far_mem_ctrl1.wrQLenPdf::25                  0                       # What write queue length does an incoming req see (Count)
system.far_mem_ctrl1.wrQLenPdf::26                  0                       # What write queue length does an incoming req see (Count)
system.far_mem_ctrl1.wrQLenPdf::27                  0                       # What write queue length does an incoming req see (Count)
system.far_mem_ctrl1.wrQLenPdf::28                  0                       # What write queue length does an incoming req see (Count)
system.far_mem_ctrl1.wrQLenPdf::29                  0                       # What write queue length does an incoming req see (Count)
system.far_mem_ctrl1.wrQLenPdf::30                  0                       # What write queue length does an incoming req see (Count)
[...]
system.monitors3.ittWriteWrite::mean              nan                       # Write-to-write inter transaction time (Tick)
system.monitors3.ittWriteWrite::stdev             nan                       # Write-to-write inter transaction time (Tick)
system.monitors3.ittWriteWrite::underflows            0                       # Write-to-write inter transaction time (Tick)
system.monitors3.ittWriteWrite::1-5000              0                       # Write-to-write inter transaction time (Tick)
system.monitors3.ittWriteWrite::5001-10000            0                       # Write-to-write inter transaction time (Tick)
system.monitors3.ittWriteWrite::10001-15000            0                       # Write-to-write inter transaction time (Tick)
system.monitors3.ittWriteWrite::15001-20000            0                       # Write-to-write inter transaction time (Tick)
system.monitors3.ittWriteWrite::20001-25000            0                       # Write-to-write inter transaction time (Tick)
system.monitors3.ittWriteWrite::25001-30000            0                       # Write-to-write inter transaction time (Tick)
system.monitors3.ittWriteWrite::30001-35000            0                       # Write-to-write inter transaction time (Tick)
system.monitors3.ittWriteWrite::35001-40000            0                       # Write-to-write inter transaction time (Tick)
system.monitors3.ittWriteWrite::40001-45000            0                       # Write-to-write inter transaction time (Tick)
system.monitors3.ittWriteWrite::45001-50000            0                       # Write-to-write inter transaction time (Tick)
system.monitors3.ittWriteWrite::50001-55000            0                       # Write-to-write inter transaction time (Tick)
system.monitors3.ittWriteWrite::55001-60000            0                       # Write-to-write inter transaction time (Tick)
system.monitors3.ittWriteWrite::60001-65000            0                       # Write-to-write inter transaction time (Tick)
system.monitors3.ittWriteWrite::65001-70000            0                       # Write-to-write inter transaction time (Tick)
system.monitors3.ittWriteWrite::70001-75000            0                       # Write-to-write inter transaction time (Tick)
system.monitors3.ittWriteWrite::75001-80000            0                       # Write-to-write inter transaction time (Tick)
system.monitors3.ittWriteWrite::80001-85000            0                       # Write-to-write inter transaction time (Tick)
system.monitors3.ittWriteWrite::85001-90000            0                       # Write-to-write inter transaction time (Tick)
system.monitors3.ittWriteWrite::90001-95000            0                       # Write-to-write inter transaction time (Tick)
system.monitors3.ittWriteWrite::95001-100000            0                       # Write-to-write inter transaction time (Tick)
system.monitors3.ittWriteWrite::overflows            0                       # Write-to-write inter transaction time (Tick)
system.monitors3.ittWriteWrite::min_value            0                       # Write-to-write inter transaction time (Tick)
system.monitors3.ittWriteWrite::max_value            0                       # Write-to-write inter transaction time (Tick)
system.monitors3.ittWriteWrite::total               0                       # Write-to-write inter transaction time (Tick)
system.monitors3.ittReqReq::samples             16694                       # Request-to-request inter transaction time (Tick)
system.monitors3.ittReqReq::mean         59887.845573                       # Request-to-request inter transaction time (Tick)
system.monitors3.ittReqReq::stdev        52981.678257                       # Request-to-request inter transaction time (Tick)
system.monitors3.ittReqReq::underflows              0      0.00%      0.00% # Request-to-request inter transaction time (Tick)
system.monitors3.ittReqReq::1-5000               2064     12.36%     12.36% # Request-to-request inter transaction time (Tick)
system.monitors3.ittReqReq::5001-10000              0      0.00%     12.36% # Request-to-request inter transaction time (Tick)
system.monitors3.ittReqReq::10001-15000             0      0.00%     12.36% # Request-to-request inter transaction time (Tick)
system.monitors3.ittReqReq::15001-20000             0      0.00%     12.36% # Request-to-request inter transaction time (Tick)
system.monitors3.ittReqReq::20001-25000             0      0.00%     12.36% # Request-to-request inter transaction time (Tick)
system.monitors3.ittReqReq::25001-30000          6380     38.22%     50.58% # Request-to-request inter transaction time (Tick)
system.monitors3.ittReqReq::30001-35000             0      0.00%     50.58% # Request-to-request inter transaction time (Tick)
system.monitors3.ittReqReq::35001-40000             0      0.00%     50.58% # Request-to-request inter transaction time (Tick)
system.monitors3.ittReqReq::40001-45000             0      0.00%     50.58% # Request-to-request inter transaction time (Tick)
system.monitors3.ittReqReq::45001-50000             0      0.00%     50.58% # Request-to-request inter transaction time (Tick)
system.monitors3.ittReqReq::50001-55000             0      0.00%     50.58% # Request-to-request inter transaction time (Tick)
system.monitors3.ittReqReq::55001-60000          3569     21.38%     71.96% # Request-to-request inter transaction time (Tick)
system.monitors3.ittReqReq::60001-65000             0      0.00%     71.96% # Request-to-request inter transaction time (Tick)
system.monitors3.ittReqReq::65001-70000             0      0.00%     71.96% # Request-to-request inter transaction time (Tick)
system.monitors3.ittReqReq::70001-75000             0      0.00%     71.96% # Request-to-request inter transaction time (Tick)
system.monitors3.ittReqReq::75001-80000             0      0.00%     71.96% # Request-to-request inter transaction time (Tick)
system.monitors3.ittReqReq::80001-85000             0      0.00%     71.96% # Request-to-request inter transaction time (Tick)
system.monitors3.ittReqReq::85001-90000          2066     12.38%     84.34% # Request-to-request inter transaction time (Tick)
system.monitors3.ittReqReq::90001-95000             0      0.00%     84.34% # Request-to-request inter transaction time (Tick)
system.monitors3.ittReqReq::95001-100000            0      0.00%     84.34% # Request-to-request inter transaction time (Tick)
system.monitors3.ittReqReq::overflows            2615     15.66%    100.00% # Request-to-request inter transaction time (Tick)
system.monitors3.ittReqReq::min_value             200                       # Request-to-request inter transaction time (Tick)
system.monitors3.ittReqReq::max_value          536436                       # Request-to-request inter transaction time (Tick)
system.monitors3.ittReqReq::total               16694                       # Request-to-request inter transaction time (Tick)
system.monitors3.outstandingReadsHist::samples            1                       # Outstanding read transactions (Count)
system.monitors3.outstandingReadsHist::mean            2                       # Outstanding read transactions (Count)
system.monitors3.outstandingReadsHist::gmean            2                       # Outstanding read transactions (Count)
system.monitors3.outstandingReadsHist::stdev          nan                       # Outstanding read transactions (Count)
system.monitors3.outstandingReadsHist::0            0      0.00%      0.00% # Outstanding read transactions (Count)
system.monitors3.outstandingReadsHist::1            0      0.00%      0.00% # Outstanding read transactions (Count)
system.monitors3.outstandingReadsHist::2            1    100.00%    100.00% # Outstanding read transactions (Count)
system.monitors3.outstandingReadsHist::3            0      0.00%    100.00% # Outstanding read transactions (Count)
system.monitors3.outstandingReadsHist::4            0      0.00%    100.00% # Outstanding read transactions (Count)
system.monitors3.outstandingReadsHist::5            0      0.00%    100.00% # Outstanding read transactions (Count)
system.monitors3.outstandingReadsHist::6            0      0.00%    100.00% # Outstanding read transactions (Count)
system.monitors3.outstandingReadsHist::7            0      0.00%    100.00% # Outstanding read transactions (Count)
system.monitors3.outstandingReadsHist::8            0      0.00%    100.00% # Outstanding read transactions (Count)
system.monitors3.outstandingReadsHist::9            0      0.00%    100.00% # Outstanding read transactions (Count)
system.monitors3.outstandingReadsHist::10            0      0.00%    100.00% # Outstanding read transactions (Count)
system.monitors3.outstandingReadsHist::11            0      0.00%    100.00% # Outstanding read transactions (Count)
system.monitors3.outstandingReadsHist::12            0      0.00%    100.00% # Outstanding read transactions (Count)
system.monitors3.outstandingReadsHist::13            0      0.00%    100.00% # Outstanding read transactions (Count)
system.monitors3.outstandingReadsHist::14            0      0.00%    100.00% # Outstanding read transactions (Count)
system.monitors3.outstandingReadsHist::15            0      0.00%    100.00% # Outstanding read transactions (Count)
system.monitors3.outstandingReadsHist::16            0      0.00%    100.00% # Outstanding read transactions (Count)
system.monitors3.outstandingReadsHist::17            0      0.00%    100.00% # Outstanding read transactions (Count)
system.monitors3.outstandingReadsHist::18            0      0.00%    100.00% # Outstanding read transactions (Count)
system.monitors3.outstandingReadsHist::19            0      0.00%    100.00% # Outstanding read transactions (Count)
system.monitors3.outstandingReadsHist::total            1                       # Outstanding read transactions (Count)
system.monitors3.outstandingWritesHist::samples            1                       # Outstanding write transactions (Count)
system.monitors3.outstandingWritesHist::mean            0                       # Outstanding write transactions (Count)
system.monitors3.outstandingWritesHist::gmean            0                       # Outstanding write transactions (Count)
system.monitors3.outstandingWritesHist::stdev          nan                       # Outstanding write transactions (Count)
system.monitors3.outstandingWritesHist::0            1    100.00%    100.00% # Outstanding write transactions (Count)
system.monitors3.outstandingWritesHist::1            0      0.00%    100.00% # Outstanding write transactions (Count)
system.monitors3.outstandingWritesHist::2            0      0.00%    100.00% # Outstanding write transactions (Count)
system.monitors3.outstandingWritesHist::3            0      0.00%    100.00% # Outstanding write transactions (Count)
system.monitors3.outstandingWritesHist::4            0      0.00%    100.00% # Outstanding write transactions (Count)
system.monitors3.outstandingWritesHist::5            0      0.00%    100.00% # Outstanding write transactions (Count)
system.monitors3.outstandingWritesHist::6            0      0.00%    100.00% # Outstanding write transactions (Count)
system.monitors3.outstandingWritesHist::7            0      0.00%    100.00% # Outstanding write transactions (Count)
system.monitors3.outstandingWritesHist::8            0      0.00%    100.00% # Outstanding write transactions (Count)
system.monitors3.outstandingWritesHist::9            0      0.00%    100.00% # Outstanding write transactions (Count)
system.monitors3.outstandingWritesHist::10            0      0.00%    100.00% # Outstanding write transactions (Count)
system.monitors3.outstandingWritesHist::11            0      0.00%    100.00% # Outstanding write transactions (Count)
system.monitors3.outstandingWritesHist::12            0      0.00%    100.00% # Outstanding write transactions (Count)
system.monitors3.outstandingWritesHist::13            0      0.00%    100.00% # Outstanding write transactions (Count)
system.monitors3.outstandingWritesHist::14            0      0.00%    100.00% # Outstanding write transactions (Count)
system.monitors3.outstandingWritesHist::15            0      0.00%    100.00% # Outstanding write transactions (Count)
system.monitors3.outstandingWritesHist::16            0      0.00%    100.00% # Outstanding write transactions (Count)
system.monitors3.outstandingWritesHist::17            0      0.00%    100.00% # Outstanding write transactions (Count)
system.monitors3.outstandingWritesHist::18            0      0.00%    100.00% # Outstanding write transactions (Count)
system.monitors3.outstandingWritesHist::19            0      0.00%    100.00% # Outstanding write transactions (Count)
system.monitors3.outstandingWritesHist::total            1                       # Outstanding write transactions (Count)
system.monitors3.readTransHist::samples             1                       # Histogram of read transactions per sample period (Count)
system.monitors3.readTransHist::mean            16695                       # Histogram of read transactions per sample period (Count)
system.monitors3.readTransHist::gmean    16695.000000                       # Histogram of read transactions per sample period (Count)
system.monitors3.readTransHist::stdev             nan                       # Histogram of read transactions per sample period (Count)
system.monitors3.readTransHist::0-1023              0      0.00%      0.00% # Histogram of read transactions per sample period (Count)
system.monitors3.readTransHist::1024-2047            0      0.00%      0.00% # Histogram of read transactions per sample period (Count)
system.monitors3.readTransHist::2048-3071            0      0.00%      0.00% # Histogram of read transactions per sample period (Count)
system.monitors3.readTransHist::3072-4095            0      0.00%      0.00% # Histogram of read transactions per sample period (Count)
system.monitors3.readTransHist::4096-5119            0      0.00%      0.00% # Histogram of read transactions per sample period (Count)
system.monitors3.readTransHist::5120-6143            0      0.00%      0.00% # Histogram of read transactions per sample period (Count)
system.monitors3.readTransHist::6144-7167            0      0.00%      0.00% # Histogram of read transactions per sample period (Count)
system.monitors3.readTransHist::7168-8191            0      0.00%      0.00% # Histogram of read transactions per sample period (Count)
system.monitors3.readTransHist::8192-9215            0      0.00%      0.00% # Histogram of read transactions per sample period (Count)
system.monitors3.readTransHist::9216-10239            0      0.00%      0.00% # Histogram of read transactions per sample period (Count)
system.monitors3.readTransHist::10240-11263            0      0.00%      0.00% # Histogram of read transactions per sample period (Count)
system.monitors3.readTransHist::11264-12287            0      0.00%      0.00% # Histogram of read transactions per sample period (Count)
system.monitors3.readTransHist::12288-13311            0      0.00%      0.00% # Histogram of read transactions per sample period (Count)
system.monitors3.readTransHist::13312-14335            0      0.00%      0.00% # Histogram of read transactions per sample period (Count)
system.monitors3.readTransHist::14336-15359            0      0.00%      0.00% # Histogram of read transactions per sample period (Count)
system.monitors3.readTransHist::15360-16383            0      0.00%      0.00% # Histogram of read transactions per sample period (Count)
system.monitors3.readTransHist::16384-17407            1    100.00%    100.00% # Histogram of read transactions per sample period (Count)
system.monitors3.readTransHist::17408-18431            0      0.00%    100.00% # Histogram of read transactions per sample period (Count)
system.monitors3.readTransHist::18432-19455            0      0.00%    100.00% # Histogram of read transactions per sample period (Count)
system.monitors3.readTransHist::19456-20479            0      0.00%    100.00% # Histogram of read transactions per sample period (Count)
system.monitors3.readTransHist::total               1                       # Histogram of read transactions per sample period (Count)
system.monitors3.writeTransHist::samples            1                       # Histogram of write transactions per sample period (Count)
system.monitors3.writeTransHist::mean               0                       # Histogram of write transactions per sample period (Count)
system.monitors3.writeTransHist::gmean              0                       # Histogram of write transactions per sample period (Count)
system.monitors3.writeTransHist::stdev            nan                       # Histogram of write transactions per sample period (Count)
system.monitors3.writeTransHist::0                  1    100.00%    100.00% # Histogram of write transactions per sample period (Count)
system.monitors3.writeTransHist::1                  0      0.00%    100.00% # Histogram of write transactions per sample period (Count)
system.monitors3.writeTransHist::2                  0      0.00%    100.00% # Histogram of write transactions per sample period (Count)
system.monitors3.writeTransHist::3                  0      0.00%    100.00% # Histogram of write transactions per sample period (Count)
system.monitors3.writeTransHist::4                  0      0.00%    100.00% # Histogram of write transactions per sample period (Count)
system.monitors3.writeTransHist::5                  0      0.00%    100.00% # Histogram of write transactions per sample period (Count)
system.monitors3.writeTransHist::6                  0      0.00%    100.00% # Histogram of write transactions per sample period (Count)
system.monitors3.writeTransHist::7                  0      0.00%    100.00% # Histogram of write transactions per sample period (Count)
system.monitors3.writeTransHist::8                  0      0.00%    100.00% # Histogram of write transactions per sample period (Count)
system.monitors3.writeTransHist::9                  0      0.00%    100.00% # Histogram of write transactions per sample period (Count)
system.monitors3.writeTransHist::10                 0      0.00%    100.00% # Histogram of write transactions per sample period (Count)
system.monitors3.writeTransHist::11                 0      0.00%    100.00% # Histogram of write transactions per sample period (Count)
system.monitors3.writeTransHist::12                 0      0.00%    100.00% # Histogram of write transactions per sample period (Count)
system.monitors3.writeTransHist::13                 0      0.00%    100.00% # Histogram of write transactions per sample period (Count)
system.monitors3.writeTransHist::14                 0      0.00%    100.00% # Histogram of write transactions per sample period (Count)
system.monitors3.writeTransHist::15                 0      0.00%    100.00% # Histogram of write transactions per sample period (Count)
system.monitors3.writeTransHist::16                 0      0.00%    100.00% # Histogram of write transactions per sample period (Count)
system.monitors3.writeTransHist::17                 0      0.00%    100.00% # Histogram of write transactions per sample period (Count)
system.monitors3.writeTransHist::18                 0      0.00%    100.00% # Histogram of write transactions per sample period (Count)
system.monitors3.writeTransHist::19                 0      0.00%    100.00% # Histogram of write transactions per sample period (Count)
system.monitors3.writeTransHist::total              1                       # Histogram of write transactions per sample period (Count)
system.workload.inst.arm                            0                       # number of arm instructions executed (Count)
system.workload.inst.quiesce                        0                       # number of quiesce instructions executed (Count)

---------- End Simulation Statistics   ----------
