
---------- Begin Simulation Statistics ----------
simSeconds                                   0.000100                       # Number of seconds simulated (Second)
simTicks                                    100108000                       # Number of ticks simulated (Tick)
finalTick                                   100108000                       # Number of ticks from beginning of simulation (restored from checkpoints and never reset) (Tick)
simFreq                                  1000000000000                       # The number of ticks per simulated second ((Tick/Second))
hostSeconds                                      0.11                       # Real time elapsed on the host (Second)
hostTickRate                                924700548                       # The number of ticks simulated per host second (ticks/s) ((Tick/Second))
hostMemory                                    3778720                       # Number of bytes of host memory used (Byte)
system.clk_domain.clock                           200                       # Clock period in ticks (Tick)
system.clk_domain.voltage_domain.voltage            1                       # Voltage in Volts (Volt)
system.far_mem_ctrl.avgPriority_writebacks::samples      5711.00                       # Average QoS priority value for accepted requests (Count)
system.far_mem_ctrl.priorityMinLatency   0.000000317492                       # per QoS priority minimum request to response latency (Second)
system.far_mem_ctrl.priorityMaxLatency   0.000002507492                       # per QoS priority maximum request to response latency (Second)
system.far_mem_ctrl.numReadWriteTurnArounds            0                       # Number of turnarounds from READ to WRITE (Count)
system.far_mem_ctrl.numWriteReadTurnArounds            0                       # Number of turnarounds from WRITE to READ (Count)
system.far_mem_ctrl.numStayReadState            17044                       # Number of times bus staying in READ state (Count)
system.far_mem_ctrl.numStayWriteState               0                       # Number of times bus staying in WRITE state (Count)
system.far_mem_ctrl.readReqs                     5711                       # Number of read requests accepted (Count)
system.far_mem_ctrl.writeReqs                       0                       # Number of write requests accepted (Count)
system.far_mem_ctrl.readBursts                   5711                       # Number of controller read bursts, including those serviced by the write queue (Count)
system.far_mem_ctrl.writeBursts                     0                       # Number of controller write bursts, including those merged in the write queue (Count)
system.far_mem_ctrl.servicedByWrQ                   0                       # Number of controller read bursts serviced by the write queue (Count)
system.far_mem_ctrl.mergedWrBursts                  0                       # Number of controller write bursts merged with an existing one (Count)
system.far_mem_ctrl.neitherReadNorWriteReqs            0                       # Number of requests that are neither read nor write (Count)
system.far_mem_ctrl.avgRdQLen                   17.96                       # Average read queue length when enqueuing ((Count/Tick))
system.far_mem_ctrl.avgWrQLen                    0.00                       # Average write queue length when enqueuing ((Count/Tick))
system.far_mem_ctrl.numRdRetry                      0                       # Number of times read queue was full causing retry (Count)
system.far_mem_ctrl.numWrRetry                      0                       # Number of times write queue was full causing retry (Count)
system.far_mem_ctrl.readPktSize::0                  0                       # Read request sizes (log2) (Count)
system.far_mem_ctrl.readPktSize::1                  0                       # Read request sizes (log2) (Count)
system.far_mem_ctrl.readPktSize::2                  0                       # Read request sizes (log2) (Count)
system.far_mem_ctrl.readPktSize::3                  0                       # Read request sizes (log2) (Count)
system.far_mem_ctrl.readPktSize::4                  0                       # Read request sizes (log2) (Count)
system.far_mem_ctrl.readPktSize::5                  0                       # Read request sizes (log2) (Count)
system.far_mem_ctrl.readPktSize::6               5711                       # Read request sizes (log2) (Count)
system.far_mem_ctrl.writePktSize::0                 0                       # Write request sizes (log2) (Count)
system.far_mem_ctrl.writePktSize::1                 0                       # Write request sizes (log2) (Count)
system.far_mem_ctrl.writePktSize::2                 0                       # Write request sizes (log2) (Count)
system.far_mem_ctrl.writePktSize::3                 0                       # Write request sizes (log2) (Count)
system.far_mem_ctrl.writePktSize::4                 0                       # Write request sizes (log2) (Count)
system.far_mem_ctrl.writePktSize::5                 0                       # Write request sizes (log2) (Count)
system.far_mem_ctrl.writePktSize::6                 0                       # Write request sizes (log2) (Count)
system.far_mem_ctrl.rdQLenPdf::0                    6                       # What read queue length does an incoming req see (Count)
system.far_mem_ctrl.rdQLenPdf::1                   10                       # What read queue length does an incoming req see (Count)
system.far_mem_ctrl.rdQLenPdf::2                   14                       # What read queue length does an incoming req see (Count)
system.far_mem_ctrl.rdQLenPdf::3                   20                       # What read queue length does an incoming req see (Count)
system.far_mem_ctrl.rdQLenPdf::4                   32                       # What read queue length does an incoming req see (Count)
system.far_mem_ctrl.rdQLenPdf::5                   64                       # What read queue length does an incoming req see (Count)
system.far_mem_ctrl.rdQLenPdf::6                  105                       # What read queue length does an incoming req see (Count)
system.far_mem_ctrl.rdQLenPdf::7                  157                       # What read queue length does an incoming req see (Count)
system.far_mem_ctrl.rdQLenPdf::8                  252                       # What read queue length does an incoming req see (Count)
system.far_mem_ctrl.rdQLenPdf::9                  321                       # What read queue length does an incoming req see (Count)
system.far_mem_ctrl.rdQLenPdf::10                 362                       # What read queue length does an incoming req see (Count)
system.far_mem_ctrl.rdQLenPdf::11                 385                       # What read queue length does an incoming req see (Count)
system.far_mem_ctrl.rdQLenPdf::12                 435                       # What read queue length does an incoming req see (Count)
system.far_mem_ctrl.rdQLenPdf::13                 481                       # What read queue length does an incoming req see (Count)
system.far_mem_ctrl.rdQLenPdf::14                 486                       # What read queue length does an incoming req see (Count)
system.far_mem_ctrl.rdQLenPdf::15                 529                       # What read queue length does an incoming req see (Count)
system.far_mem_ctrl.rdQLenPdf::16                 482                       # What read queue length does an incoming req see (Count)
system.far_mem_ctrl.rdQLenPdf::17                 444                       # What read queue length does an incoming req see (Count)
system.far_mem_ctrl.rdQLenPdf::18                 367                       # What read queue length does an incoming req see (Count)
system.far_mem_ctrl.rdQLenPdf::19                 248                       # What read queue length does an incoming req see (Count)
system.far_mem_ctrl.rdQLenPdf::20                 171                       # What read queue length does an incoming req see (Count)
system.far_mem_ctrl.rdQLenPdf::21                  95                       # What read queue length does an incoming req see (Count)
system.far_mem_ctrl.rdQLenPdf::22                  51                       # What read queue length does an incoming req see (Count)
system.far_mem_ctrl.rdQLenPdf::23                  34                       # What read queue length does an incoming req see (Count)
system.far_mem_ctrl.rdQLenPdf::24                  23                       # What read queue length does an incoming req see (Count)
system.far_mem_ctrl.rdQLenPdf::25                   8                       # What read queue length does an incoming req see (Count)
system.far_mem_ctrl.rdQLenPdf::26                   4                       # What read queue length does an incoming req see (Count)
system.far_mem_ctrl.rdQLenPdf::27                   3                       # What read queue length does an incoming req see (Count)
system.far_mem_ctrl.rdQLenPdf::28                   8                       # What read queue length does an incoming req see (Count)
system.far_mem_ctrl.rdQLenPdf::29                   3                       # What read queue length does an incoming req see (Count)
system.far_mem_ctrl.rdQLenPdf::30                   3                       # What read queue length does an incoming req see (Count)
system.far_mem_ctrl.rdQLenPdf::31                  11                       # What read queue length does an incoming req see (Count)
system.far_mem_ctrl.rdQLenPdf::32                   4                       # What read queue length does an incoming req see (Count)
system.far_mem_ctrl.rdQLenPdf::33                   2                       # What read queue length does an incoming req see (Count)
system.far_mem_ctrl.rdQLenPdf::34                   5                       # What read queue length does an incoming req see (Count)
system.far_mem_ctrl.rdQLenPdf::35                   5                       # What read queue length does an incoming req see (Count)
system.far_mem_ctrl.rdQLenPdf::36                   1                       # What read queue length does an incoming req see (Count)
system.far_mem_ctrl.rdQLenPdf::37                   2                       # What read queue length does an incoming req see (Count)
system.far_mem_ctrl.rdQLenPdf::38                   5                       # What read queue length does an incoming req see (Count)
system.far_mem_ctrl.rdQLenPdf::39                  10                       # What read queue length does an incoming req see (Count)
system.far_mem_ctrl.rdQLenPdf::40                  11                       # What read queue length does an incoming req see (Count)
system.far_mem_ctrl.rdQLenPdf::41                   6                       # What read queue length does an incoming req see (Count)
system.far_mem_ctrl.rdQLenPdf::42                   4                       # What read queue length does an incoming req see (Count)
system.far_mem_ctrl.rdQLenPdf::43                   2                       # What read queue length does an incoming req see (Count)
system.far_mem_ctrl.rdQLenPdf::44                   1                       # What read queue length does an incoming req see (Count)
system.far_mem_ctrl.rdQLenPdf::45                   1                       # What read queue length does an incoming req see (Count)
system.far_mem_ctrl.rdQLenPdf::46                   4                       # What read queue length does an incoming req see (Count)
system.far_mem_ctrl.rdQLenPdf::47                   8                       # What read queue length does an incoming req see (Count)
system.far_mem_ctrl.rdQLenPdf::48                   5                       # What read queue length does an incoming req see (Count)
system.far_mem_ctrl.rdQLenPdf::49                   1                       # What read queue length does an incoming req see (Count)
system.far_mem_ctrl.rdQLenPdf::50                   1                       # What read queue length does an incoming req see (Count)
system.far_mem_ctrl.rdQLenPdf::51                   1                       # What read queue length does an incoming req see (Count)
system.far_mem_ctrl.rdQLenPdf::52                   8                       # What read queue length does an incoming req see (Count)
system.far_mem_ctrl.rdQLenPdf::53                   7                       # What read queue length does an incoming req see (Count)
system.far_mem_ctrl.rdQLenPdf::54                   3                       # What read queue length does an incoming req see (Count)
system.far_mem_ctrl.rdQLenPdf::55                   0                       # What read queue length does an incoming req see (Count)
system.far_mem_ctrl.rdQLenPdf::56                   0                       # What read queue length does an incoming req see (Count)
system.far_mem_ctrl.rdQLenPdf::57                   0                       # What read queue length does an incoming req see (Count)
system.far_mem_ctrl.rdQLenPdf::58                   0                       # What read queue length does an incoming req see (Count)
system.far_mem_ctrl.rdQLenPdf::59                   0                       # What read queue length does an incoming req see (Count)
system.far_mem_ctrl.rdQLenPdf::60                   0                       # What read queue length does an incoming req see (Count)
system.far_mem_ctrl.rdQLenPdf::61                   0                       # What read queue length does an incoming req see (Count)
system.far_mem_ctrl.rdQLenPdf::62                   0                       # What read queue length does an incoming req see (Count)
system.far_mem_ctrl.rdQLenPdf::63                   0                       # What read queue length does an incoming req see (Count)
system.far_mem_ctrl.rdQLenPdf::64                   0                       # What read queue length does an incoming req see (Count)
system.far_mem_ctrl.rdQLenPdf::65                   0                       # What read queue length does an incoming req see (Count)
system.far_mem_ctrl.rdQLenPdf::66                   0                       # What read queue length does an incoming req see (Count)
system.far_mem_ctrl.rdQLenPdf::67                   0                       # What read queue length does an incoming req see (Count)
system.far_mem_ctrl.rdQLenPdf::68                   0                       # What read queue length does an incoming req see (Count)
system.far_mem_ctrl.rdQLenPdf::69                   0                       # What read queue length does an incoming req see (Count)
system.far_mem_ctrl.rdQLenPdf::70                   0                       # What read queue length does an incoming req see (Count)
system.far_mem_ctrl.rdQLenPdf::71                   0                       # What read queue length does an incoming req see (Count)
system.far_mem_ctrl.rdQLenPdf::72                   0                       # What read queue length does an incoming req see (Count)
system.far_mem_ctrl.rdQLenPdf::73                   0                       # What read queue length does an incoming req see (Count)
system.far_mem_ctrl.rdQLenPdf::74                   0                       # What read queue length does an incoming req see (Count)
system.far_mem_ctrl.rdQLenPdf::75                   0                       # What read queue length does an incoming req see (Count)
system.far_mem_ctrl.rdQLenPdf::76                   0                       # What read queue length does an incoming req see (Count)
system.far_mem_ctrl.rdQLenPdf::77                   0                       # What read queue length does an incoming req see (Count)
system.far_mem_ctrl.rdQLenPdf::78                   0                       # What read queue length does an incoming req see (Count)
system.far_mem_ctrl.rdQLenPdf::79                   0                       # What read queue length does an incoming req see (Count)
system.far_mem_ctrl.rdQLenPdf::80                   0                       # What read queue length does an incoming req see (Count)
system.far_mem_ctrl.rdQLenPdf::81                   0                       # What read queue length does an incoming req see (Count)
system.far_mem_ctrl.rdQLenPdf::82                   0                       # What read queue length does an incoming req see (Count)
system.far_mem_ctrl.rdQLenPdf::83                   0                       # What read queue length does an incoming req see (Count)
system.far_mem_ctrl.rdQLenPdf::84                   0                       # What read queue length does an incoming req see (Count)
system.far_mem_ctrl.rdQLenPdf::85                   0                       # What read queue length does an incoming req see (Count)
system.far_mem_ctrl.rdQLenPdf::86                   0                       # What read queue length does an incoming req see (Count)
system.far_mem_ctrl.rdQLenPdf::87                   0                       # What read queue length does an incoming req see (Count)
system.far_mem_ctrl.rdQLenPdf::88                   0                       # What read queue length does an incoming req see (Count)
system.far_mem_ctrl.rdQLenPdf::89                   0                       # What read queue length does an incoming req see (Count)
system.far_mem_ctrl.rdQLenPdf::90                   0                       # What read queue length does an incoming req see (Count)
system.far_mem_ctrl.rdQLenPdf::91                   0                       # What read queue length does an incoming req see (Count)
system.far_mem_ctrl.rdQLenPdf::92                   0                       # What read queue length does an incoming req see (Count)
system.far_mem_ctrl.rdQLenPdf::93                   0                       # What read queue length does an incoming req see (Count)
system.far_mem_ctrl.rdQLenPdf::94                   0                       # What read queue length does an incoming req see (Count)
system.far_mem_ctrl.rdQLenPdf::95                   0                       # What read queue length does an incoming req see (Count)
system.far_mem_ctrl.rdQLenPdf::96                   0                       # What read queue length does an incoming req see (Count)
system.far_mem_ctrl.rdQLenPdf::97                   0                       # What read queue length does an incoming req see (Count)
system.far_mem_ctrl.rdQLenPdf::98                   0                       # What read queue length does an incoming req see (Count)
system.far_mem_ctrl.rdQLenPdf::99                   0                       # What read queue length does an incoming req see (Count)
system.far_mem_ctrl.rdQLenPdf::100                  0                       # What read queue length does an incoming req see (Count)
system.far_mem_ctrl.rdQLenPdf::101                  0                       # What read queue length does an incoming req see (Count)
system.far_mem_ctrl.rdQLenPdf::102                  0                       # What read queue length does an incoming req see (Count)
system.far_mem_ctrl.rdQLenPdf::103                  0                       # What read queue length does an incoming req see (Count)
system.far_mem_ctrl.rdQLenPdf::104                  0                       # What read queue length does an incoming req see (Count)
system.far_mem_ctrl.rdQLenPdf::105                  0                       # What read queue length does an incoming req see (Count)
system.far_mem_ctrl.rdQLenPdf::106                  0                       # What read queue length does an incoming req see (Count)
system.far_mem_ctrl.rdQLenPdf::107                  0                       # What read queue length does an incoming req see (Count)
system.far_mem_ctrl.rdQLenPdf::108                  0                       # What read queue length does an incoming req see (Count)
system.far_mem_ctrl.rdQLenPdf::109                  0                       # What read queue length does an incoming req see (Count)
system.far_mem_ctrl.rdQLenPdf::110                  0                       # What read queue length does an incoming req see (Count)
system.far_mem_ctrl.rdQLenPdf::111                  0                       # What read queue length does an incoming req see (Count)
system.far_mem_ctrl.rdQLenPdf::112                  0                       # What read queue length does an incoming req see (Count)
system.far_mem_ctrl.rdQLenPdf::113                  0                       # What read queue length does an incoming req see (Count)
system.far_mem_ctrl.rdQLenPdf::114                  0                       # What read queue length does an incoming req see (Count)
system.far_mem_ctrl.rdQLenPdf::115                  0                       # What read queue length does an incoming req see (Count)
system.far_mem_ctrl.rdQLenPdf::116                  0                       # What read queue length does an incoming req see (Count)
system.far_mem_ctrl.rdQLenPdf::117                  0                       # What read queue length does an incoming req see (Count)
system.far_mem_ctrl.rdQLenPdf::118                  0                       # What read queue length does an incoming req see (Count)
system.far_mem_ctrl.rdQLenPdf::119                  0                       # What read queue length does an incoming req see (Count)
system.far_mem_ctrl.rdQLenPdf::120                  0                       # What read queue length does an incoming req see (Count)
system.far_mem_ctrl.rdQLenPdf::121                  0                       # What read queue length does an incoming req see (Count)
system.far_mem_ctrl.rdQLenPdf::122                  0                       # What read queue length does an incoming req see (Count)
system.far_mem_ctrl.rdQLenPdf::123                  0                       # What read queue length does an incoming req see (Count)
system.far_mem_ctrl.rdQLenPdf::124                  0                       # What read queue length does an incoming req see (Count)
system.far_mem_ctrl.rdQLenPdf::125                  0                       # What read queue length does an incoming req see (Count)
system.far_mem_ctrl.rdQLenPdf::126                  0                       # What read queue length does an incoming req see (Count)
system.far_mem_ctrl.rdQLenPdf::127                  0                       # What read queue length does an incoming req see (Count)
system.far_mem_ctrl.wrQLenPdf::0                    0                       # What write queue length does an incoming req see (Count)
system.far_mem_ctrl.wrQLenPdf::1                    0                       # What write queue length does an incoming req see (Count)
system.far_mem_ctrl.wrQLenPdf::2                    0                       # What write queue length does an incoming req see (Count)
system.far_mem_ctrl.wrQLenPdf::3                    0                       # What write queue length does an incoming req see (Count)
system.far_mem_ctrl.wrQLenPdf::4                    0                       # What write queue length does an incoming req see (Count)
system.far_mem_ctrl.wrQLenPdf::5                    0                       # What write queue length does an incoming req see (Count)
system.far_mem_ctrl.wrQLenPdf::6                    0                       # What write queue length does an incoming req see (Count)
system.far_mem_ctrl.wrQLenPdf::7                    0                       # What write queue length does an incoming req see (Count)
system.far_mem_ctrl.wrQLenPdf::8                    0                       # What write queue length does an incoming req see (Count)
system.far_mem_ctrl.wrQLenPdf::9                    0                       # What write queue length does an incoming req see (Count)
system.far_mem_ctrl.wrQLenPdf::10                   0                       # What write queue length does an incoming req see (Count)
system.far_mem_ctrl.wrQLenPdf::11                   0                       # What write queue length does an incoming req see (Count)
system.far_mem_ctrl.wrQLenPdf::12                   0                       # What write queue length does an incoming req see (Count)
system.far_mem_ctrl.wrQLenPdf::13                   0                       # What write queue length does an incoming req see (Count)
system.far_mem_ctrl.wrQLenPdf::14                   0                       # What write queue length does an incoming req see (Count)
system.far_mem_ctrl.wrQLenPdf::15                   0                       # What write queue length does an incoming req see (Count)
system.far_mem_ctrl.wrQLenPdf::16                   0                       # What write queue length does an incoming req see (Count)
system.far_mem_ctrl.wrQLenPdf::17                   0                       # What write queue length does an incoming req see (Count)
system.far_mem_ctrl.wrQLenPdf::18                   0                       # What write queue length does an incoming req see (Count)
system.far_mem_ctrl.wrQLenPdf::19                   0                       # What write queue length does an incoming req see (Count)
system.far_mem_ctrl.wrQLenPdf::20                   0                       # What write queue length does an incoming req see (Count)
system.far_mem_ctrl.wrQLenPdf::21                   0                       # What write queue length does an incoming req see (Count)
system.far_mem_ctrl.wrQLenPdf::22                   0                       # What write queue length does an incoming req see (Count)
system.far_mem_ctrl.wrQLenPdf::23                   0                       # What write queue length does an incoming req see (Count)
system.far_mem_ctrl.wrQLenPdf::24                   0                       # What write queue length does an incoming req see (Count)
system.far_mem_ctrl.wrQLenPdf::25                   0                       # What write queue length does an incoming req see (Count)
system.far_mem_ctrl.wrQLenPdf::26                   0                       # What write queue length does an incoming req see (Count)
system.far_mem_ctrl.wrQLenPdf::27                   0                       # What write queue length does an incoming req see (Count)
system.far_mem_ctrl.wrQLenPdf::28                   0                       # What write queue length does an incoming req see (Count)
system.far_mem_ctrl.wrQLenPdf::29                   0                       # What write queue length does an incoming req see (Count)
system.far_mem_ctrl.wrQLenPdf::30                   0                       # What write queue length does an incoming req see (Count)
system.far_mem_ctrl.wrQLenPdf::31                   0                       # What write queue length does an incoming req see (Count)
system.far_mem_ctrl.wrQLenPdf::32                   0                       # What write queue length does an incoming req see (Count)
system.far_mem_ctrl.wrQLenPdf::33                   0                       # What write queue length does an incoming req see (Count)
system.far_mem_ctrl.wrQLenPdf::34                   0                       # What write queue length does an incoming req see (Count)
system.far_mem_ctrl.wrQLenPdf::35                   0                       # What write queue length does an incoming req see (Count)
system.far_mem_ctrl.wrQLenPdf::36                   0                       # What write queue length does an incoming req see (Count)
system.far_mem_ctrl.wrQLenPdf::37                   0                       # What write queue length does an incoming req see (Count)
system.far_mem_ctrl.wrQLenPdf::38                   0                       # What write queue length does an incoming req see (Count)
system.far_mem_ctrl.wrQLenPdf::39                   0                       # What write queue length does an incoming req see (Count)
system.far_mem_ctrl.wrQLenPdf::40                   0                       # What write queue length does an incoming req see (Count)
system.far_mem_ctrl.wrQLenPdf::41                   0                       # What write queue length does an incoming req see (Count)
system.far_mem_ctrl.wrQLenPdf::42                   0                       # What write queue length does an incoming req see (Count)
system.far_mem_ctrl.wrQLenPdf::43                   0                       # What write queue length does an incoming req see (Count)
system.far_mem_ctrl.wrQLenPdf::44                   0                       # What write queue length does an incoming req see (Count)
system.far_mem_ctrl.wrQLenPdf::45                   0                       # What write queue length does an incoming req see (Count)
system.far_mem_ctrl.wrQLenPdf::46                   0                       # What write queue length does an incoming req see (Count)
system.far_mem_ctrl.wrQLenPdf::47                   0                       # What write queue length does an incoming req see (Count)
system.far_mem_ctrl.wrQLenPdf::48                   0                       # What write queue length does an incoming req see (Count)
system.far_mem_ctrl.wrQLenPdf::49                   0                       # What write queue length does an incoming req see (Count)
system.far_mem_ctrl.wrQLenPdf::50                   0                       # What write queue length does an incoming req see (Count)
system.far_mem_ctrl.wrQLenPdf::51                   0                       # What write queue length does an incoming req see (Count)
system.far_mem_ctrl.wrQLenPdf::52                   0                       # What write queue length does an incoming req see (Count)
system.far_mem_ctrl.wrQLenPdf::53                   0                       # What write queue length does an incoming req see (Count)
system.far_mem_ctrl.wrQLenPdf::54                   0                       # What write queue length does an incoming req see (Count)
system.far_mem_ctrl.wrQLenPdf::55                   0                       # What write queue length does an incoming req see (Count)
system.far_mem_ctrl.wrQLenPdf::56                   0                       # What write queue length does an incoming req see (Count)
system.far_mem_ctrl.wrQLenPdf::57                   0                       # What write queue length does an incoming req see (Count)
system.far_mem_ctrl.wrQLenPdf::58                   0                       # What write queue length does an incoming req see (Count)
system.far_mem_ctrl.wrQLenPdf::59                   0                       # What write queue length does an incoming req see (Count)
system.far_mem_ctrl.wrQLenPdf::60                   0                       # What write queue length does an incoming req see (Count)
system.far_mem_ctrl.wrQLenPdf::61                   0                       # What write queue length does an incoming req see (Count)
system.far_mem_ctrl.wrQLenPdf::62                   0                       # What write queue length does an incoming req see (Count)
system.far_mem_ctrl.wrQLenPdf::63                   0                       # What write queue length does an incoming req see (Count)
system.far_mem_ctrl.wrQLenPdf::64                   0                       # What write queue length does an incoming req see (Count)
system.far_mem_ctrl.wrQLenPdf::65                   0                       # What write queue length does an incoming req see (Count)
system.far_mem_ctrl.wrQLenPdf::66                   0                       # What write queue length does an incoming req see (Count)
system.far_mem_ctrl.wrQLenPdf::67                   0                       # What write queue length does an incoming req see (Count)
system.far_mem_ctrl.wrQLenPdf::68                   0                       # What write queue length does an incoming req see (Count)
system.far_mem_ctrl.wrQLenPdf::69                   0                       # What write queue length does an incoming req see (Count)
system.far_mem_ctrl.wrQLenPdf::70                   0                       # What write queue length does an incoming req see (Count)
system.far_mem_ctrl.wrQLenPdf::71                   0                       # What write queue length does an incoming req see (Count)
system.far_mem_ctrl.wrQLenPdf::72                   0                       # What write queue length does an incoming req see (Count)
system.far_mem_ctrl.wrQLenPdf::73                   0                       # What write queue length does an incoming req see (Count)
system.far_mem_ctrl.wrQLenPdf::74                   0                       # What write queue length does an incoming req see (Count)
system.far_mem_ctrl.wrQLenPdf::75                   0                       # What write queue length does an incoming req see (Count)
system.far_mem_ctrl.wrQLenPdf::76                   0                       # What write queue length does an incoming req see (Count)
system.far_mem_ctrl.wrQLenPdf::77                   0                       # What write queue length does an incoming req see (Count)
system.far_mem_ctrl.wrQLenPdf::78                   0                       # What write queue length does an incoming req see (Count)
system.far_mem_ctrl.wrQLenPdf::79                   0                       # What write queue length does an incoming req see (Count)
system.far_mem_ctrl.wrQLenPdf::80                   0                       # What write queue length does an incoming req see (Count)
system.far_mem_ctrl.wrQLenPdf::81                   0                       # What write queue length does an incoming req see (Count)
system.far_mem_ctrl.wrQLenPdf::82                   0                       # What write queue length does an incoming req see (Count)
system.far_mem_ctrl.wrQLenPdf::83                   0                       # What write queue length does an incoming req see (Count)
system.far_mem_ctrl.wrQLenPdf::84                   0                       # What write queue length does an incoming req see (Count)
system.far_mem_ctrl.wrQLenPdf::85                   0                       # What write queue length does an incoming req see (Count)
system.far_mem_ctrl.wrQLenPdf::86                   0                       # What write queue length does an incoming req see (Count)
system.far_mem_ctrl.wrQLenPdf::87                   0                       # What write queue length does an incoming req see (Count)
system.far_mem_ctrl.wrQLenPdf::88                   0                       # What write queue length does an incoming req see (Count)
system.far_mem_ctrl.wrQLenPdf::89                   0                       # What write queue length does an incoming req see (Count)
system.far_mem_ctrl.wrQLenPdf::90                   0                       # What write queue length does an incoming req see (Count)
system.far_mem_ctrl.wrQLenPdf::91                   0                       # What write queue length does an incoming req see (Count)
system.far_mem_ctrl.wrQLenPdf::92                   0                       # What write queue length does an incoming req see (Count)
system.far_mem_ctrl.wrQLenPdf::93                   0                       # What write queue length does an incoming req see (Count)
system.far_mem_ctrl.wrQLenPdf::94                   0                       # What write queue length does an incoming req see (Count)
system.far_mem_ctrl.wrQLenPdf::95                   0                       # What write queue length does an incoming req see (Count)
system.far_mem_ctrl.wrQLenPdf::96                   0                       # What write queue length does an incoming req see (Count)
system.far_mem_ctrl.wrQLenPdf::97                   0                       # What write queue length does an incoming req see (Count)
system.far_mem_ctrl.wrQLenPdf::98                   0                       # What write queue length does an incoming req see (Count)
system.far_mem_ctrl.wrQLenPdf::99                   0                       # What write queue length does an incoming req see (Count)
system.far_mem_ctrl.wrQLenPdf::100                  0                       # What write queue length does an incoming req see (Count)
system.far_mem_ctrl.wrQLenPdf::101                  0                       # What write queue length does an incoming req see (Count)
system.far_mem_ctrl.wrQLenPdf::102                  0                       # What write queue length does an incoming req see (Count)
system.far_mem_ctrl.wrQLenPdf::103                  0                       # What write queue length does an incoming req see (Count)
system.far_mem_ctrl.wrQLenPdf::104                  0                       # What write queue length does an incoming req see (Count)
system.far_mem_ctrl.wrQLenPdf::105                  0                       # What write queue length does an incoming req see (Count)
system.far_mem_ctrl.wrQLenPdf::106                  0                       # What write queue length does an incoming req see (Count)
system.far_mem_ctrl.wrQLenPdf::107                  0                       # What write queue length does an incoming req see (Count)
system.far_mem_ctrl.wrQLenPdf::108                  0                       # What write queue length does an incoming req see (Count)
system.far_mem_ctrl.wrQLenPdf::109                  0                       # What write queue length does an incoming req see (Count)
system.far_mem_ctrl.wrQLenPdf::110                  0                       # What write queue length does an incoming req see (Count)
system.far_mem_ctrl.wrQLenPdf::111                  0                       # What write queue length does an incoming req see (Count)
system.far_mem_ctrl.wrQLenPdf::112                  0                       # What write queue length does an incoming req see (Count)
system.far_mem_ctrl.wrQLenPdf::113                  0                       # What write queue length does an incoming req see (Count)
system.far_mem_ctrl.wrQLenPdf::114                  0                       # What write queue length does an incoming req see (Count)
system.far_mem_ctrl.wrQLenPdf::115                  0                       # What write queue length does an incoming req see (Count)
system.far_mem_ctrl.wrQLenPdf::116                  0                       # What write queue length does an incoming req see (Count)
system.far_mem_ctrl.wrQLenPdf::117                  0                       # What write queue length does an incoming req see (Count)
system.far_mem_ctrl.wrQLenPdf::118                  0                       # What write queue length does an incoming req see (Count)
system.far_mem_ctrl.wrQLenPdf::119                  0                       # What write queue length does an incoming req see (Count)
system.far_mem_ctrl.wrQLenPdf::120                  0                       # What write queue length does an incoming req see (Count)
system.far_mem_ctrl.wrQLenPdf::121                  0                       # What write queue length does an incoming req see (Count)
system.far_mem_ctrl.wrQLenPdf::122                  0                       # What write queue length does an incoming req see (Count)
system.far_mem_ctrl.wrQLenPdf::123                  0                       # What write queue length does an incoming req see (Count)
system.far_mem_ctrl.wrQLenPdf::124                  0                       # What write queue length does an incoming req see (Count)
system.far_mem_ctrl.wrQLenPdf::125                  0                       # What write queue length does an incoming req see (Count)
system.far_mem_ctrl.wrQLenPdf::126                  0                       # What write queue length does an incoming req see (Count)
system.far_mem_ctrl.wrQLenPdf::127                  0                       # What write queue length does an incoming req see (Count)
system.far_mem_ctrl.bytesReadWrQ                    0                       # Total number of bytes read from write queue (Byte)
system.far_mem_ctrl.bytesReadSys               365504                       # Total read bytes from the system interface side (Byte)
system.far_mem_ctrl.bytesWrittenSys                 0                       # Total written bytes from the system interface side (Byte)
system.far_mem_ctrl.avgRdBWSys           3651096815.43932581                       # Average system read bandwidth in Byte/s ((Byte/Second))
system.far_mem_ctrl.avgWrBWSys             0.00000000                       # Average system write bandwidth in Byte/s ((Byte/Second))
system.far_mem_ctrl.totGap                  100034000                       # Total gap between requests (Tick)
system.far_mem_ctrl.avgGap                   17516.02                       # Average gap between requests ((Tick/Count))
system.far_mem_ctrl.requestorReadBytes::writebacks       364416                       # Per-requestor bytes read from memory (Byte)
system.far_mem_ctrl.requestorReadRate::writebacks 3640228553.162584304810                       # Per-requestor bytes read from memory rate ((Byte/Second))
system.far_mem_ctrl.requestorReadAccesses::writebacks         5711                       # Per-requestor read serviced memory accesses (Count)
system.far_mem_ctrl.requestorReadTotalLat::writebacks   1466927382                       # Per-requestor read total memory access latency (Tick)
system.far_mem_ctrl.requestorReadAvgLat::writebacks    256859.99                       # Per-requestor read average memory access latency ((Tick/Count))
system.far_mem_ctrl.dram.bytesRead::writebacks       364416                       # Number of bytes read from this memory (Byte)
system.far_mem_ctrl.dram.bytesRead::total       364416                       # Number of bytes read from this memory (Byte)
system.far_mem_ctrl.dram.numReads::writebacks         5694                       # Number of read requests responded to by this memory (Count)
system.far_mem_ctrl.dram.numReads::total         5694                       # Number of read requests responded to by this memory (Count)
system.far_mem_ctrl.dram.bwRead::writebacks   3640228553                       # Total read bandwidth from this memory ((Byte/Second))
system.far_mem_ctrl.dram.bwRead::total     3640228553                       # Total read bandwidth from this memory ((Byte/Second))
system.far_mem_ctrl.dram.bwTotal::writebacks   3640228553                       # Total bandwidth to/from this memory ((Byte/Second))
system.far_mem_ctrl.dram.bwTotal::total    3640228553                       # Total bandwidth to/from this memory ((Byte/Second))
system.far_mem_ctrl.dram.readBursts              5694                       # Number of NVM read bursts (Count)
system.far_mem_ctrl.dram.writeBursts                0                       # Number of NVM write bursts (Count)
system.far_mem_ctrl.dram.perBankRdBursts::0          366                       # Per bank write bursts (Count)
system.far_mem_ctrl.dram.perBankRdBursts::1          352                       # Per bank write bursts (Count)
system.far_mem_ctrl.dram.perBankRdBursts::2          363                       # Per bank write bursts (Count)
system.far_mem_ctrl.dram.perBankRdBursts::3          366                       # Per bank write bursts (Count)
system.far_mem_ctrl.dram.perBankRdBursts::4          334                       # Per bank write bursts (Count)
system.far_mem_ctrl.dram.perBankRdBursts::5          323                       # Per bank write bursts (Count)
system.far_mem_ctrl.dram.perBankRdBursts::6          376                       # Per bank write bursts (Count)
system.far_mem_ctrl.dram.perBankRdBursts::7          370                       # Per bank write bursts (Count)
system.far_mem_ctrl.dram.perBankRdBursts::8          363                       # Per bank write bursts (Count)
system.far_mem_ctrl.dram.perBankRdBursts::9          330                       # Per bank write bursts (Count)
system.far_mem_ctrl.dram.perBankRdBursts::10          368                       # Per bank write bursts (Count)
system.far_mem_ctrl.dram.perBankRdBursts::11          369                       # Per bank write bursts (Count)
system.far_mem_ctrl.dram.perBankRdBursts::12          336                       # Per bank write bursts (Count)
system.far_mem_ctrl.dram.perBankRdBursts::13          362                       # Per bank write bursts (Count)
system.far_mem_ctrl.dram.perBankRdBursts::14          375                       # Per bank write bursts (Count)
system.far_mem_ctrl.dram.perBankRdBursts::15          341                       # Per bank write bursts (Count)
system.far_mem_ctrl.dram.perBankWrBursts::0            0                       # Per bank write bursts (Count)
system.far_mem_ctrl.dram.perBankWrBursts::1            0                       # Per bank write bursts (Count)
system.far_mem_ctrl.dram.perBankWrBursts::2            0                       # Per bank write bursts (Count)
system.far_mem_ctrl.dram.perBankWrBursts::3            0                       # Per bank write bursts (Count)
system.far_mem_ctrl.dram.perBankWrBursts::4            0                       # Per bank write bursts (Count)
system.far_mem_ctrl.dram.perBankWrBursts::5            0                       # Per bank write bursts (Count)
system.far_mem_ctrl.dram.perBankWrBursts::6            0                       # Per bank write bursts (Count)
system.far_mem_ctrl.dram.perBankWrBursts::7            0                       # Per bank write bursts (Count)
system.far_mem_ctrl.dram.perBankWrBursts::8            0                       # Per bank write bursts (Count)
system.far_mem_ctrl.dram.perBankWrBursts::9            0                       # Per bank write bursts (Count)
system.far_mem_ctrl.dram.perBankWrBursts::10            0                       # Per bank write bursts (Count)
system.far_mem_ctrl.dram.perBankWrBursts::11            0                       # Per bank write bursts (Count)
system.far_mem_ctrl.dram.perBankWrBursts::12            0                       # Per bank write bursts (Count)
system.far_mem_ctrl.dram.perBankWrBursts::13            0                       # Per bank write bursts (Count)
system.far_mem_ctrl.dram.perBankWrBursts::14            0                       # Per bank write bursts (Count)
system.far_mem_ctrl.dram.perBankWrBursts::15            0                       # Per bank write bursts (Count)
system.far_mem_ctrl.dram.totQLat           1367327934                       # Total ticks spent queuing (Tick)
system.far_mem_ctrl.dram.totBusLat           18972408                       # Total ticks spent in databus transfers (Tick)
system.far_mem_ctrl.dram.totMemAccLat      1466927382                       # Total ticks spent from burst creation until serviced by the NVM (Tick)
system.far_mem_ctrl.dram.avgQLat            240134.87                       # Average queueing delay per NVM burst ((Tick/Count))
system.far_mem_ctrl.dram.avgBusLat            3332.00                       # Average bus latency per NVM burst ((Tick/Count))
system.far_mem_ctrl.dram.avgMemAccLat       257626.87                       # Average memory access latency per NVM burst ((Tick/Count))
system.far_mem_ctrl.dram.avgRdBW              3640.23                       # Average DRAM read bandwidth in MiBytes/s ((Byte/Second))
system.far_mem_ctrl.dram.avgWrBW                 0.00                       # Average DRAM write bandwidth in MiBytes/s ((Byte/Second))
system.far_mem_ctrl.dram.peakBW              19207.00                       # Theoretical peak bandwidth in MiByte/s ((Byte/Second))
system.far_mem_ctrl.dram.busUtil                18.95                       # NVM Data bus utilization in percentage (Ratio)
system.far_mem_ctrl.dram.busUtilRead            18.95                       # NVM Data bus read utilization in percentage (Ratio)
system.far_mem_ctrl.dram.busUtilWrite            0.00                       # NVM Data bus write utilization in percentage (Ratio)
system.far_mem_ctrl.dram.pendingReads::samples         5694                       # Reads issued to NVM for which data has not been transferred (Count)
system.far_mem_ctrl.dram.pendingReads::mean    13.535476                       # Reads issued to NVM for which data has not been transferred (Count)
system.far_mem_ctrl.dram.pendingReads::stdev     5.610590                       # Reads issued to NVM for which data has not been transferred (Count)
system.far_mem_ctrl.dram.pendingReads::0            5      0.09%      0.09% # Reads issued to NVM for which data has not been transferred (Count)
system.far_mem_ctrl.dram.pendingReads::1           13      0.23%      0.32% # Reads issued to NVM for which data has not been transferred (Count)
system.far_mem_ctrl.dram.pendingReads::2           18      0.32%      0.63% # Reads issued to NVM for which data has not been transferred (Count)
system.far_mem_ctrl.dram.pendingReads::3           28      0.49%      1.12% # Reads issued to NVM for which data has not been transferred (Count)
system.far_mem_ctrl.dram.pendingReads::4           40      0.70%      1.83% # Reads issued to NVM for which data has not been transferred (Count)
system.far_mem_ctrl.dram.pendingReads::5           80      1.40%      3.23% # Reads issued to NVM for which data has not been transferred (Count)
system.far_mem_ctrl.dram.pendingReads::6          143      2.51%      5.74% # Reads issued to NVM for which data has not been transferred (Count)
system.far_mem_ctrl.dram.pendingReads::7          207      3.64%      9.38% # Reads issued to NVM for which data has not been transferred (Count)
system.far_mem_ctrl.dram.pendingReads::8          268      4.71%     14.09% # Reads issued to NVM for which data has not been transferred (Count)
system.far_mem_ctrl.dram.pendingReads::9          346      6.08%     20.16% # Reads issued to NVM for which data has not been transferred (Count)
system.far_mem_ctrl.dram.pendingReads::10          396      6.95%     27.12% # Reads issued to NVM for which data has not been transferred (Count)
system.far_mem_ctrl.dram.pendingReads::11          438      7.69%     34.81% # Reads issued to NVM for which data has not been transferred (Count)
system.far_mem_ctrl.dram.pendingReads::12          483      8.48%     43.29% # Reads issued to NVM for which data has not been transferred (Count)
system.far_mem_ctrl.dram.pendingReads::13          511      8.97%     52.27% # Reads issued to NVM for which data has not been transferred (Count)
system.far_mem_ctrl.dram.pendingReads::14          508      8.92%     61.19% # Reads issued to NVM for which data has not been transferred (Count)
system.far_mem_ctrl.dram.pendingReads::15          491      8.62%     69.81% # Reads issued to NVM for which data has not been transferred (Count)
system.far_mem_ctrl.dram.pendingReads::16          493      8.66%     78.47% # Reads issued to NVM for which data has not been transferred (Count)
system.far_mem_ctrl.dram.pendingReads::17          366      6.43%     84.90% # Reads issued to NVM for which data has not been transferred (Count)
system.far_mem_ctrl.dram.pendingReads::18          291      5.11%     90.01% # Reads issued to NVM for which data has not been transferred (Count)
system.far_mem_ctrl.dram.pendingReads::19          190      3.34%     93.34% # Reads issued to NVM for which data has not been transferred (Count)
system.far_mem_ctrl.dram.pendingReads::20          105      1.84%     95.19% # Reads issued to NVM for which data has not been transferred (Count)
system.far_mem_ctrl.dram.pendingReads::21           68      1.19%     96.38% # Reads issued to NVM for which data has not been transferred (Count)
system.far_mem_ctrl.dram.pendingReads::22           43      0.76%     97.14% # Reads issued to NVM for which data has not been transferred (Count)
system.far_mem_ctrl.dram.pendingReads::23           22      0.39%     97.52% # Reads issued to NVM for which data has not been transferred (Count)
system.far_mem_ctrl.dram.pendingReads::24           10      0.18%     97.70% # Reads issued to NVM for which data has not been transferred (Count)
system.far_mem_ctrl.dram.pendingReads::25            7      0.12%     97.82% # Reads issued to NVM for which data has not been transferred (Count)
system.far_mem_ctrl.dram.pendingReads::26            5      0.09%     97.91% # Reads issued to NVM for which data has not been transferred (Count)
system.far_mem_ctrl.dram.pendingReads::27            5      0.09%     98.00% # Reads issued to NVM for which data has not been transferred (Count)
system.far_mem_ctrl.dram.pendingReads::28            4      0.07%     98.07% # Reads issued to NVM for which data has not been transferred (Count)
system.far_mem_ctrl.dram.pendingReads::29            9      0.16%     98.23% # Reads issued to NVM for which data has not been transferred (Count)
system.far_mem_ctrl.dram.pendingReads::30            4      0.07%     98.30% # Reads issued to NVM for which data has not been transferred (Count)
system.far_mem_ctrl.dram.pendingReads::31            3      0.05%     98.35% # Reads issued to NVM for which data has not been transferred (Count)
system.far_mem_ctrl.dram.pendingReads::32            6      0.11%     98.45% # Reads issued to NVM for which data has not been transferred (Count)
system.far_mem_ctrl.dram.pendingReads::33            5      0.09%     98.54% # Reads issued to NVM for which data has not been transferred (Count)
system.far_mem_ctrl.dram.pendingReads::34            1      0.02%     98.56% # Reads issued to NVM for which data has not been transferred (Count)
system.far_mem_ctrl.dram.pendingReads::35            3      0.05%     98.61% # Reads issued to NVM for which data has not been transferred (Count)
system.far_mem_ctrl.dram.pendingReads::36            5      0.09%     98.70% # Reads issued to NVM for which data has not been transferred (Count)
system.far_mem_ctrl.dram.pendingReads::37            9      0.16%     98.86% # Reads issued to NVM for which data has not been transferred (Count)
system.far_mem_ctrl.dram.pendingReads::38           10      0.18%     99.03% # Reads issued to NVM for which data has not been transferred (Count)
system.far_mem_ctrl.dram.pendingReads::39            7      0.12%     99.16% # Reads issued to NVM for which data has not been transferred (Count)
system.far_mem_ctrl.dram.pendingReads::40            4      0.07%     99.23% # Reads issued to NVM for which data has not been transferred (Count)
system.far_mem_ctrl.dram.pendingReads::41            2      0.04%     99.26% # Reads issued to NVM for which data has not been transferred (Count)
system.far_mem_ctrl.dram.pendingReads::42            1      0.02%     99.28% # Reads issued to NVM for which data has not been transferred (Count)
system.far_mem_ctrl.dram.pendingReads::43            1      0.02%     99.30% # Reads issued to NVM for which data has not been transferred (Count)
system.far_mem_ctrl.dram.pendingReads::44            4      0.07%     99.37% # Reads issued to NVM for which data has not been transferred (Count)
system.far_mem_ctrl.dram.pendingReads::45            8      0.14%     99.51% # Reads issued to NVM for which data has not been transferred (Count)
system.far_mem_ctrl.dram.pendingReads::46            5      0.09%     99.60% # Reads issued to NVM for which data has not been transferred (Count)
system.far_mem_ctrl.dram.pendingReads::47            1      0.02%     99.61% # Reads issued to NVM for which data has not been transferred (Count)
system.far_mem_ctrl.dram.pendingReads::48            1      0.02%     99.63% # Reads issued to NVM for which data has not been transferred (Count)
system.far_mem_ctrl.dram.pendingReads::49            2      0.04%     99.67% # Reads issued to NVM for which data has not been transferred (Count)
system.far_mem_ctrl.dram.pendingReads::50            9      0.16%     99.82% # Reads issued to NVM for which data has not been transferred (Count)
system.far_mem_ctrl.dram.pendingReads::51            6      0.11%     99.93% # Reads issued to NVM for which data has not been transferred (Count)
system.far_mem_ctrl.dram.pendingReads::52            2      0.04%     99.96% # Reads issued to NVM for which data has not been transferred (Count)
system.far_mem_ctrl.dram.pendingReads::53            1      0.02%     99.98% # Reads issued to NVM for which data has not been transferred (Count)
system.far_mem_ctrl.dram.pendingReads::54            1      0.02%    100.00% # Reads issued to NVM for which data has not been transferred (Count)
system.far_mem_ctrl.dram.pendingReads::total         5694                       # Reads issued to NVM for which data has not been transferred (Count)
system.far_mem_ctrl.dram.bytesPerBank::samples         5711                       # Bytes read within a bank before loading new bank (Byte)
system.far_mem_ctrl.dram.bytesPerBank::mean           64                       # Bytes read within a bank before loading new bank (Byte)
system.far_mem_ctrl.dram.bytesPerBank::gmean    64.000000                       # Bytes read within a bank before loading new bank (Byte)
system.far_mem_ctrl.dram.bytesPerBank::64         5711    100.00%    100.00% # Bytes read within a bank before loading new bank (Byte)
system.far_mem_ctrl.dram.bytesPerBank::total         5711                       # Bytes read within a bank before loading new bank (Byte)
system.far_mem_ctrl.dram.power_state.pwrStateResidencyTicks::UNDEFINED    100108000                       # Cumulative time (in ticks) in various power states (Tick)
system.far_mem_ctrl.power_state.pwrStateResidencyTicks::UNDEFINED    100108000                       # Cumulative time (in ticks) in various power states (Tick)
system.generators.numSuppressed                     0                       # Number of suppressed packets to non-memory space (Count)
system.generators.numPackets                     5921                       # Number of packets generated (Count)
system.generators.numRetries                     5665                       # Number of retries (Count)
system.generators.retryTicks                100005971                       # Time spent waiting due to back-pressure (Tick)
system.generators.bytesRead                    364352                       # Number of bytes read (Byte)
system.generators.bytesWritten                      0                       # Number of bytes written (Byte)
system.generators.totalReadLatency        22688661809                       # Total latency of read requests (Tick)
system.generators.totalWriteLatency                 0                       # Total latency of write requests (Tick)
system.generators.totalReads                     5693                       # Total num of reads (Count)
system.generators.totalWrites                       0                       # Total num of writes (Count)
system.generators.avgReadLatency         3985361.287370                       # Avg latency of read requests ((Tick/Count))
system.generators.avgWriteLatency                 nan                       # Avg latency of write requests ((Tick/Count))
system.generators.readBW                 3639589243.616894                       # Read bandwidth ((Byte/Second))
system.generators.writeBW                           0                       # Write bandwidth ((Byte/Second))
system.generators.power_state.pwrStateResidencyTicks::UNDEFINED    100108000                       # Cumulative time (in ticks) in various power states (Tick)
system.loc_mem_ctrlrs.avgPriority_writebacks::samples     11412.00                       # Average QoS priority value for accepted requests (Count)
system.loc_mem_ctrlrs.priorityMinLatency 0.000000048603                       # per QoS priority minimum request to response latency (Second)
system.loc_mem_ctrlrs.priorityMaxLatency 0.000009068000                       # per QoS priority maximum request to response latency (Second)
system.loc_mem_ctrlrs.numReadWriteTurnArounds          350                       # Number of turnarounds from READ to WRITE (Count)
system.loc_mem_ctrlrs.numWriteReadTurnArounds          351                       # Number of turnarounds from WRITE to READ (Count)
system.loc_mem_ctrlrs.numStayReadState           5444                       # Number of times bus staying in READ state (Count)
system.loc_mem_ctrlrs.numStayWriteState          5267                       # Number of times bus staying in WRITE state (Count)
system.loc_mem_ctrlrs.readReqs                   5746                       # Number of read requests accepted (Count)
system.loc_mem_ctrlrs.writeReqs                  5666                       # Number of write requests accepted (Count)
system.loc_mem_ctrlrs.readBursts                 5746                       # Number of controller read bursts, including those serviced by the write queue (Count)
system.loc_mem_ctrlrs.writeBursts                5666                       # Number of controller write bursts, including those merged in the write queue (Count)
system.loc_mem_ctrlrs.servicedByWrQ                 0                       # Number of controller read bursts serviced by the write queue (Count)
system.loc_mem_ctrlrs.mergedWrBursts                0                       # Number of controller write bursts merged with an existing one (Count)
system.loc_mem_ctrlrs.neitherReadNorWriteReqs            0                       # Number of requests that are neither read nor write (Count)
system.loc_mem_ctrlrs.avgRdQLen                 32.00                       # Average read queue length when enqueuing ((Count/Tick))
system.loc_mem_ctrlrs.avgWrQLen                 63.59                       # Average write queue length when enqueuing ((Count/Tick))
system.loc_mem_ctrlrs.numRdRetry                11227                       # Number of times read queue was full causing retry (Count)
system.loc_mem_ctrlrs.numWrRetry                11098                       # Number of times write queue was full causing retry (Count)
system.loc_mem_ctrlrs.readPktSize::0                0                       # Read request sizes (log2) (Count)
system.loc_mem_ctrlrs.readPktSize::1                0                       # Read request sizes (log2) (Count)
system.loc_mem_ctrlrs.readPktSize::2                0                       # Read request sizes (log2) (Count)
system.loc_mem_ctrlrs.readPktSize::3                0                       # Read request sizes (log2) (Count)
system.loc_mem_ctrlrs.readPktSize::4                0                       # Read request sizes (log2) (Count)
system.loc_mem_ctrlrs.readPktSize::5                0                       # Read request sizes (log2) (Count)
system.loc_mem_ctrlrs.readPktSize::6             5746                       # Read request sizes (log2) (Count)
system.loc_mem_ctrlrs.writePktSize::0               0                       # Write request sizes (log2) (Count)
system.loc_mem_ctrlrs.writePktSize::1               0                       # Write request sizes (log2) (Count)
system.loc_mem_ctrlrs.writePktSize::2               0                       # Write request sizes (log2) (Count)
system.loc_mem_ctrlrs.writePktSize::3               0                       # Write request sizes (log2) (Count)
system.loc_mem_ctrlrs.writePktSize::4               0                       # Write request sizes (log2) (Count)
system.loc_mem_ctrlrs.writePktSize::5               0                       # Write request sizes (log2) (Count)
system.loc_mem_ctrlrs.writePktSize::6            5666                       # Write request sizes (log2) (Count)
system.loc_mem_ctrlrs.rdQLenPdf::0                  1                       # What read queue length does an incoming req see (Count)
system.loc_mem_ctrlrs.rdQLenPdf::1                  1                       # What read queue length does an incoming req see (Count)
system.loc_mem_ctrlrs.rdQLenPdf::2                  1                       # What read queue length does an incoming req see (Count)
system.loc_mem_ctrlrs.rdQLenPdf::3                  1                       # What read queue length does an incoming req see (Count)
system.loc_mem_ctrlrs.rdQLenPdf::4                  1                       # What read queue length does an incoming req see (Count)
system.loc_mem_ctrlrs.rdQLenPdf::5                  1                       # What read queue length does an incoming req see (Count)
system.loc_mem_ctrlrs.rdQLenPdf::6                  1                       # What read queue length does an incoming req see (Count)
system.loc_mem_ctrlrs.rdQLenPdf::7                  1                       # What read queue length does an incoming req see (Count)
system.loc_mem_ctrlrs.rdQLenPdf::8                  1                       # What read queue length does an incoming req see (Count)
system.loc_mem_ctrlrs.rdQLenPdf::9                  1                       # What read queue length does an incoming req see (Count)
system.loc_mem_ctrlrs.rdQLenPdf::10                 1                       # What read queue length does an incoming req see (Count)
system.loc_mem_ctrlrs.rdQLenPdf::11                 1                       # What read queue length does an incoming req see (Count)
system.loc_mem_ctrlrs.rdQLenPdf::12                 1                       # What read queue length does an incoming req see (Count)
system.loc_mem_ctrlrs.rdQLenPdf::13                 1                       # What read queue length does an incoming req see (Count)
system.loc_mem_ctrlrs.rdQLenPdf::14                 1                       # What read queue length does an incoming req see (Count)
system.loc_mem_ctrlrs.rdQLenPdf::15                 1                       # What read queue length does an incoming req see (Count)
system.loc_mem_ctrlrs.rdQLenPdf::16                 1                       # What read queue length does an incoming req see (Count)
system.loc_mem_ctrlrs.rdQLenPdf::17                 1                       # What read queue length does an incoming req see (Count)
system.loc_mem_ctrlrs.rdQLenPdf::18                 1                       # What read queue length does an incoming req see (Count)
system.loc_mem_ctrlrs.rdQLenPdf::19                 1                       # What read queue length does an incoming req see (Count)
system.loc_mem_ctrlrs.rdQLenPdf::20                 1                       # What read queue length does an incoming req see (Count)
system.loc_mem_ctrlrs.rdQLenPdf::21                 1                       # What read queue length does an incoming req see (Count)
system.loc_mem_ctrlrs.rdQLenPdf::22                 1                       # What read queue length does an incoming req see (Count)
system.loc_mem_ctrlrs.rdQLenPdf::23                 1                       # What read queue length does an incoming req see (Count)
system.loc_mem_ctrlrs.rdQLenPdf::24                 1                       # What read queue length does an incoming req see (Count)
system.loc_mem_ctrlrs.rdQLenPdf::25                 1                       # What read queue length does an incoming req see (Count)
system.loc_mem_ctrlrs.rdQLenPdf::26                 1                       # What read queue length does an incoming req see (Count)
system.loc_mem_ctrlrs.rdQLenPdf::27                 1                       # What read queue length does an incoming req see (Count)
system.loc_mem_ctrlrs.rdQLenPdf::28                 1                       # What read queue length does an incoming req see (Count)
system.loc_mem_ctrlrs.rdQLenPdf::29                 1                       # What read queue length does an incoming req see (Count)
system.loc_mem_ctrlrs.rdQLenPdf::30                 1                       # What read queue length does an incoming req see (Count)
system.loc_mem_ctrlrs.rdQLenPdf::31              5715                       # What read queue length does an incoming req see (Count)
system.loc_mem_ctrlrs.wrQLenPdf::0                  1                       # What write queue length does an incoming req see (Count)
system.loc_mem_ctrlrs.wrQLenPdf::1                  1                       # What write queue length does an incoming req see (Count)
system.loc_mem_ctrlrs.wrQLenPdf::2                  1                       # What write queue length does an incoming req see (Count)
system.loc_mem_ctrlrs.wrQLenPdf::3                  1                       # What write queue length does an incoming req see (Count)
system.loc_mem_ctrlrs.wrQLenPdf::4                  1                       # What write queue length does an incoming req see (Count)
system.loc_mem_ctrlrs.wrQLenPdf::5                  1                       # What write queue length does an incoming req see (Count)
system.loc_mem_ctrlrs.wrQLenPdf::6                  1                       # What write queue length does an incoming req see (Count)
system.loc_mem_ctrlrs.wrQLenPdf::7                  1                       # What write queue length does an incoming req see (Count)
system.loc_mem_ctrlrs.wrQLenPdf::8                  1                       # What write queue length does an incoming req see (Count)
system.loc_mem_ctrlrs.wrQLenPdf::9                  1                       # What write queue length does an incoming req see (Count)
system.loc_mem_ctrlrs.wrQLenPdf::10                 1                       # What write queue length does an incoming req see (Count)
system.loc_mem_ctrlrs.wrQLenPdf::11                 1                       # What write queue length does an incoming req see (Count)
system.loc_mem_ctrlrs.wrQLenPdf::12                 1                       # What write queue length does an incoming req see (Count)
system.loc_mem_ctrlrs.wrQLenPdf::13                 1                       # What write queue length does an incoming req see (Count)
system.loc_mem_ctrlrs.wrQLenPdf::14                 1                       # What write queue length does an incoming req see (Count)
system.loc_mem_ctrlrs.wrQLenPdf::15                 1                       # What write queue length does an incoming req see (Count)
system.loc_mem_ctrlrs.wrQLenPdf::16                 1                       # What write queue length does an incoming req see (Count)
system.loc_mem_ctrlrs.wrQLenPdf::17                 1                       # What write queue length does an incoming req see (Count)
system.loc_mem_ctrlrs.wrQLenPdf::18                 1                       # What write queue length does an incoming req see (Count)
system.loc_mem_ctrlrs.wrQLenPdf::19                 1                       # What write queue length does an incoming req see (Count)
system.loc_mem_ctrlrs.wrQLenPdf::20                 1                       # What write queue length does an incoming req see (Count)
system.loc_mem_ctrlrs.wrQLenPdf::21                 1                       # What write queue length does an incoming req see (Count)
system.loc_mem_ctrlrs.wrQLenPdf::22                 1                       # What write queue length does an incoming req see (Count)
system.loc_mem_ctrlrs.wrQLenPdf::23                 1                       # What write queue length does an incoming req see (Count)
system.loc_mem_ctrlrs.wrQLenPdf::24                 1                       # What write queue length does an incoming req see (Count)
system.loc_mem_ctrlrs.wrQLenPdf::25                 1                       # What write queue length does an incoming req see (Count)
system.loc_mem_ctrlrs.wrQLenPdf::26                 1                       # What write queue length does an incoming req see (Count)
system.loc_mem_ctrlrs.wrQLenPdf::27                 1                       # What write queue length does an incoming req see (Count)
system.loc_mem_ctrlrs.wrQLenPdf::28                 1                       # What write queue length does an incoming req see (Count)
system.loc_mem_ctrlrs.wrQLenPdf::29                 1                       # What write queue length does an incoming req see (Count)
system.loc_mem_ctrlrs.wrQLenPdf::30                 1                       # What write queue length does an incoming req see (Count)
system.loc_mem_ctrlrs.wrQLenPdf::31                 1                       # What write queue length does an incoming req see (Count)
system.loc_mem_ctrlrs.wrQLenPdf::32                 1                       # What write queue length does an incoming req see (Count)
system.loc_mem_ctrlrs.wrQLenPdf::33                 1                       # What write queue length does an incoming req see (Count)
system.loc_mem_ctrlrs.wrQLenPdf::34                 1                       # What write queue length does an incoming req see (Count)
system.loc_mem_ctrlrs.wrQLenPdf::35                 1                       # What write queue length does an incoming req see (Count)
system.loc_mem_ctrlrs.wrQLenPdf::36                 1                       # What write queue length does an incoming req see (Count)
system.loc_mem_ctrlrs.wrQLenPdf::37                 1                       # What write queue length does an incoming req see (Count)
system.loc_mem_ctrlrs.wrQLenPdf::38                 1                       # What write queue length does an incoming req see (Count)
system.loc_mem_ctrlrs.wrQLenPdf::39                 1                       # What write queue length does an incoming req see (Count)
system.loc_mem_ctrlrs.wrQLenPdf::40                 1                       # What write queue length does an incoming req see (Count)
system.loc_mem_ctrlrs.wrQLenPdf::41                 1                       # What write queue length does an incoming req see (Count)
system.loc_mem_ctrlrs.wrQLenPdf::42                 1                       # What write queue length does an incoming req see (Count)
system.loc_mem_ctrlrs.wrQLenPdf::43                 1                       # What write queue length does an incoming req see (Count)
system.loc_mem_ctrlrs.wrQLenPdf::44                 1                       # What write queue length does an incoming req see (Count)
system.loc_mem_ctrlrs.wrQLenPdf::45                 1                       # What write queue length does an incoming req see (Count)
system.loc_mem_ctrlrs.wrQLenPdf::46                 1                       # What write queue length does an incoming req see (Count)
system.loc_mem_ctrlrs.wrQLenPdf::47                 1                       # What write queue length does an incoming req see (Count)
system.loc_mem_ctrlrs.wrQLenPdf::48                 1                       # What write queue length does an incoming req see (Count)
system.loc_mem_ctrlrs.wrQLenPdf::49                 1                       # What write queue length does an incoming req see (Count)
system.loc_mem_ctrlrs.wrQLenPdf::50                 4                       # What write queue length does an incoming req see (Count)
system.loc_mem_ctrlrs.wrQLenPdf::51                 2                       # What write queue length does an incoming req see (Count)
system.loc_mem_ctrlrs.wrQLenPdf::52                 2                       # What write queue length does an incoming req see (Count)
system.loc_mem_ctrlrs.wrQLenPdf::53                 4                       # What write queue length does an incoming req see (Count)
system.loc_mem_ctrlrs.wrQLenPdf::54                 6                       # What write queue length does an incoming req see (Count)
system.loc_mem_ctrlrs.wrQLenPdf::55                 4                       # What write queue length does an incoming req see (Count)
system.loc_mem_ctrlrs.wrQLenPdf::56                 1                       # What write queue length does an incoming req see (Count)
system.loc_mem_ctrlrs.wrQLenPdf::57                 1                       # What write queue length does an incoming req see (Count)
system.loc_mem_ctrlrs.wrQLenPdf::58                 1                       # What write queue length does an incoming req see (Count)
system.loc_mem_ctrlrs.wrQLenPdf::59                 1                       # What write queue length does an incoming req see (Count)
system.loc_mem_ctrlrs.wrQLenPdf::60                 9                       # What write queue length does an incoming req see (Count)
system.loc_mem_ctrlrs.wrQLenPdf::61                10                       # What write queue length does an incoming req see (Count)
system.loc_mem_ctrlrs.wrQLenPdf::62                11                       # What write queue length does an incoming req see (Count)
system.loc_mem_ctrlrs.wrQLenPdf::63              5560                       # What write queue length does an incoming req see (Count)
system.loc_mem_ctrlrs.rdPerTurnAround::samples          351                       # Reads before turning the bus around for writes (Count)
system.loc_mem_ctrlrs.rdPerTurnAround::mean    16.293447                       # Reads before turning the bus around for writes (Count)
system.loc_mem_ctrlrs.rdPerTurnAround::gmean    16.091728                       # Reads before turning the bus around for writes (Count)
system.loc_mem_ctrlrs.rdPerTurnAround::stdev     5.497733                       # Reads before turning the bus around for writes (Count)
system.loc_mem_ctrlrs.rdPerTurnAround::16-19          350     99.72%     99.72% # Reads before turning the bus around for writes (Count)
system.loc_mem_ctrlrs.rdPerTurnAround::116-119            1      0.28%    100.00% # Reads before turning the bus around for writes (Count)
system.loc_mem_ctrlrs.rdPerTurnAround::total          351                       # Reads before turning the bus around for writes (Count)
system.loc_mem_ctrlrs.wrPerTurnAround::samples          350                       # Writes before turning the bus around for reads (Count)
system.loc_mem_ctrlrs.wrPerTurnAround::mean           16                       # Writes before turning the bus around for reads (Count)
system.loc_mem_ctrlrs.wrPerTurnAround::gmean    16.000000                       # Writes before turning the bus around for reads (Count)
system.loc_mem_ctrlrs.wrPerTurnAround::16          350    100.00%    100.00% # Writes before turning the bus around for reads (Count)
system.loc_mem_ctrlrs.wrPerTurnAround::total          350                       # Writes before turning the bus around for reads (Count)
system.loc_mem_ctrlrs.bytesReadWrQ                  0                       # Total number of bytes read from write queue (Byte)
system.loc_mem_ctrlrs.bytesReadSys             367744                       # Total read bytes from the system interface side (Byte)
system.loc_mem_ctrlrs.bytesWrittenSys          362624                       # Total written bytes from the system interface side (Byte)
system.loc_mem_ctrlrs.avgRdBWSys         3673472649.53849840                       # Average system read bandwidth in Byte/s ((Byte/Second))
system.loc_mem_ctrlrs.avgWrBWSys         3622327885.88324594                       # Average system write bandwidth in Byte/s ((Byte/Second))
system.loc_mem_ctrlrs.totGap                100106603                       # Total gap between requests (Tick)
system.loc_mem_ctrlrs.avgGap                  8772.05                       # Average gap between requests ((Tick/Count))
system.loc_mem_ctrlrs.requestorReadBytes::writebacks       366016                       # Per-requestor bytes read from memory (Byte)
system.loc_mem_ctrlrs.requestorWriteBytes::writebacks       358528                       # Per-requestor bytes write to memory (Byte)
system.loc_mem_ctrlrs.requestorReadRate::writebacks 3656211291.804851055145                       # Per-requestor bytes read from memory rate ((Byte/Second))
system.loc_mem_ctrlrs.requestorWriteRate::writebacks 3581412074.959044456482                       # Per-requestor bytes write to memory rate ((Byte/Second))
system.loc_mem_ctrlrs.requestorReadAccesses::writebacks         5746                       # Per-requestor read serviced memory accesses (Count)
system.loc_mem_ctrlrs.requestorWriteAccesses::writebacks         5666                       # Per-requestor write serviced memory accesses (Count)
system.loc_mem_ctrlrs.requestorReadTotalLat::writebacks   3190698384                       # Per-requestor read total memory access latency (Tick)
system.loc_mem_ctrlrs.requestorWriteTotalLat::writebacks   6603444713                       # Per-requestor write total memory access latency (Tick)
system.loc_mem_ctrlrs.requestorReadAvgLat::writebacks    555290.36                       # Per-requestor read average memory access latency ((Tick/Count))
system.loc_mem_ctrlrs.requestorWriteAvgLat::writebacks   1165450.88                       # Per-requestor write average memory access latency ((Tick/Count))
system.loc_mem_ctrlrs.dram.bytesRead::writebacks       365696                       # Number of bytes read from this memory (Byte)
system.loc_mem_ctrlrs.dram.bytesRead::total       365696                       # Number of bytes read from this memory (Byte)
system.loc_mem_ctrlrs.dram.bytesWritten::writebacks       362624                       # Number of bytes written to this memory (Byte)
system.loc_mem_ctrlrs.dram.bytesWritten::total       362624                       # Number of bytes written to this memory (Byte)
system.loc_mem_ctrlrs.dram.numReads::writebacks         5714                       # Number of read requests responded to by this memory (Count)
system.loc_mem_ctrlrs.dram.numReads::total         5714                       # Number of read requests responded to by this memory (Count)
system.loc_mem_ctrlrs.dram.numWrites::writebacks         5666                       # Number of write requests responded to by this memory (Count)
system.loc_mem_ctrlrs.dram.numWrites::total         5666                       # Number of write requests responded to by this memory (Count)
system.loc_mem_ctrlrs.dram.bwRead::writebacks   3653014744                       # Total read bandwidth from this memory ((Byte/Second))
system.loc_mem_ctrlrs.dram.bwRead::total   3653014744                       # Total read bandwidth from this memory ((Byte/Second))
system.loc_mem_ctrlrs.dram.bwWrite::writebacks   3622327886                       # Write bandwidth from this memory ((Byte/Second))
system.loc_mem_ctrlrs.dram.bwWrite::total   3622327886                       # Write bandwidth from this memory ((Byte/Second))
system.loc_mem_ctrlrs.dram.bwTotal::writebacks   7275342630                       # Total bandwidth to/from this memory ((Byte/Second))
system.loc_mem_ctrlrs.dram.bwTotal::total   7275342630                       # Total bandwidth to/from this memory ((Byte/Second))
system.loc_mem_ctrlrs.dram.readBursts            5719                       # Number of DRAM read bursts (Count)
system.loc_mem_ctrlrs.dram.writeBursts           5602                       # Number of DRAM write bursts (Count)
system.loc_mem_ctrlrs.dram.perBankRdBursts::0          690                       # Per bank write bursts (Count)
system.loc_mem_ctrlrs.dram.perBankRdBursts::1          715                       # Per bank write bursts (Count)
system.loc_mem_ctrlrs.dram.perBankRdBursts::2          761                       # Per bank write bursts (Count)
system.loc_mem_ctrlrs.dram.perBankRdBursts::3          720                       # Per bank write bursts (Count)
system.loc_mem_ctrlrs.dram.perBankRdBursts::4          700                       # Per bank write bursts (Count)
system.loc_mem_ctrlrs.dram.perBankRdBursts::5          651                       # Per bank write bursts (Count)
system.loc_mem_ctrlrs.dram.perBankRdBursts::6          711                       # Per bank write bursts (Count)
system.loc_mem_ctrlrs.dram.perBankRdBursts::7          771                       # Per bank write bursts (Count)
system.loc_mem_ctrlrs.dram.perBankWrBursts::0          676                       # Per bank write bursts (Count)
system.loc_mem_ctrlrs.dram.perBankWrBursts::1          699                       # Per bank write bursts (Count)
system.loc_mem_ctrlrs.dram.perBankWrBursts::2          736                       # Per bank write bursts (Count)
system.loc_mem_ctrlrs.dram.perBankWrBursts::3          706                       # Per bank write bursts (Count)
system.loc_mem_ctrlrs.dram.perBankWrBursts::4          683                       # Per bank write bursts (Count)
system.loc_mem_ctrlrs.dram.perBankWrBursts::5          645                       # Per bank write bursts (Count)
system.loc_mem_ctrlrs.dram.perBankWrBursts::6          704                       # Per bank write bursts (Count)
system.loc_mem_ctrlrs.dram.perBankWrBursts::7          753                       # Per bank write bursts (Count)
system.loc_mem_ctrlrs.dram.totQLat         3082037384                       # Total ticks spent queuing (Tick)
system.loc_mem_ctrlrs.dram.totBusLat         22876000                       # Total ticks spent in databus transfers (Tick)
system.loc_mem_ctrlrs.dram.totMemAccLat    3190698384                       # Total ticks spent from burst creation until serviced by the DRAM (Tick)
system.loc_mem_ctrlrs.dram.avgQLat          538911.94                       # Average queueing delay per DRAM burst ((Tick/Count))
system.loc_mem_ctrlrs.dram.avgBusLat          4000.00                       # Average bus latency per DRAM burst ((Tick/Count))
system.loc_mem_ctrlrs.dram.avgMemAccLat     557911.94                       # Average memory access latency per DRAM burst ((Tick/Count))
system.loc_mem_ctrlrs.dram.readRowHits              0                       # Number of row buffer hits during reads (Count)
system.loc_mem_ctrlrs.dram.writeRowHits             0                       # Number of row buffer hits during writes (Count)
system.loc_mem_ctrlrs.dram.readRowHitRate         0.00                       # Row buffer hit rate for reads (Ratio)
system.loc_mem_ctrlrs.dram.writeRowHitRate         0.00                       # Row buffer hit rate for writes (Ratio)
system.loc_mem_ctrlrs.dram.bytesPerActivate::samples        11318                       # Bytes accessed per row activation (Byte)
system.loc_mem_ctrlrs.dram.bytesPerActivate::mean           64                       # Bytes accessed per row activation (Byte)
system.loc_mem_ctrlrs.dram.bytesPerActivate::gmean    64.000000                       # Bytes accessed per row activation (Byte)
system.loc_mem_ctrlrs.dram.bytesPerActivate::64-71        11318    100.00%    100.00% # Bytes accessed per row activation (Byte)
system.loc_mem_ctrlrs.dram.bytesPerActivate::total        11318                       # Bytes accessed per row activation (Byte)
system.loc_mem_ctrlrs.dram.bytesRead           366016                       # Total bytes read (Byte)
system.loc_mem_ctrlrs.dram.bytesWritten        358528                       # Total bytes written (Byte)
system.loc_mem_ctrlrs.dram.avgRdBW        3656.211292                       # Average DRAM read bandwidth in MiBytes/s ((Byte/Second))
system.loc_mem_ctrlrs.dram.avgWrBW        3581.412075                       # Average DRAM write bandwidth in MiBytes/s ((Byte/Second))
system.loc_mem_ctrlrs.dram.peakBW            16000.00                       # Theoretical peak bandwidth in MiByte/s ((Byte/Second))
system.loc_mem_ctrlrs.dram.busUtil              45.24                       # Data bus utilization in percentage (Ratio)
system.loc_mem_ctrlrs.dram.busUtilRead          22.85                       # Data bus utilization in percentage for reads (Ratio)
system.loc_mem_ctrlrs.dram.busUtilWrite         22.38                       # Data bus utilization in percentage for writes (Ratio)
system.loc_mem_ctrlrs.dram.pageHitRate           0.00                       # Row buffer hit rate, read and write combined (Ratio)
system.loc_mem_ctrlrs.dram.power_state.pwrStateResidencyTicks::UNDEFINED    100108000                       # Cumulative time (in ticks) in various power states (Tick)
system.loc_mem_ctrlrs.dram.rank0.actEnergy            0                       # Energy for activate commands per rank (pJ) (Joule)
system.loc_mem_ctrlrs.dram.rank0.preEnergy            0                       # Energy for precharge commands per rank (pJ) (Joule)
system.loc_mem_ctrlrs.dram.rank0.readEnergy            0                       # Energy for read commands per rank (pJ) (Joule)
system.loc_mem_ctrlrs.dram.rank0.writeEnergy            0                       # Energy for write commands per rank (pJ) (Joule)
system.loc_mem_ctrlrs.dram.rank0.refreshEnergy            0                       # Energy for refresh commands per rank (pJ) (Joule)
system.loc_mem_ctrlrs.dram.rank0.actBackEnergy            0                       # Energy for active background per rank (pJ) (Joule)
system.loc_mem_ctrlrs.dram.rank0.preBackEnergy            0                       # Energy for precharge background per rank (pJ) (Joule)
system.loc_mem_ctrlrs.dram.rank0.actPowerDownEnergy            0                       # Energy for active power-down per rank (pJ) (Joule)
system.loc_mem_ctrlrs.dram.rank0.prePowerDownEnergy            0                       # Energy for precharge power-down per rank (pJ) (Joule)
system.loc_mem_ctrlrs.dram.rank0.selfRefreshEnergy            0                       # Energy for self refresh per rank (pJ) (Joule)
system.loc_mem_ctrlrs.dram.rank0.totalEnergy            0                       # Total energy per rank (pJ) (Joule)
system.loc_mem_ctrlrs.dram.rank0.averagePower            0                       # Core power per rank (mW) (Watt)
system.loc_mem_ctrlrs.dram.rank0.totalIdleTime            0                       # Total Idle time Per DRAM Rank (Tick)
system.loc_mem_ctrlrs.dram.rank0.pwrStateTime::IDLE          397                       # Time in different power states (Tick)
system.loc_mem_ctrlrs.dram.rank0.pwrStateTime::REF      4000000                       # Time in different power states (Tick)
system.loc_mem_ctrlrs.dram.rank0.pwrStateTime::SREF            0                       # Time in different power states (Tick)
system.loc_mem_ctrlrs.dram.rank0.pwrStateTime::PRE_PDN            0                       # Time in different power states (Tick)
system.loc_mem_ctrlrs.dram.rank0.pwrStateTime::ACT     96107603                       # Time in different power states (Tick)
system.loc_mem_ctrlrs.dram.rank0.pwrStateTime::ACT_PDN            0                       # Time in different power states (Tick)
system.loc_mem_ctrlrs.power_state.pwrStateResidencyTicks::UNDEFINED    100108000                       # Cumulative time (in ticks) in various power states (Tick)
system.mem_ctrl.bytesRead::generators          364352                       # Number of bytes read from this memory (Byte)
system.mem_ctrl.bytesRead::total               364352                       # Number of bytes read from this memory (Byte)
system.mem_ctrl.numReads::generators             5693                       # Number of read requests responded to by this memory (Count)
system.mem_ctrl.numReads::total                  5693                       # Number of read requests responded to by this memory (Count)
system.mem_ctrl.bwRead::generators         3639589244                       # Total read bandwidth from this memory ((Byte/Second))
system.mem_ctrl.bwRead::total              3639589244                       # Total read bandwidth from this memory ((Byte/Second))
system.mem_ctrl.bwTotal::generators        3639589244                       # Total bandwidth to/from this memory ((Byte/Second))
system.mem_ctrl.bwTotal::total             3639589244                       # Total bandwidth to/from this memory ((Byte/Second))
system.mem_ctrl.readReqs                         5921                       # Number of read requests accepted (Count)
system.mem_ctrl.writeReqs                           0                       # Number of write requests accepted (Count)
system.mem_ctrl.servicedByWrQ                       0                       # Number of controller read bursts serviced by the write queue (Count)
system.mem_ctrl.mergedWrBursts                      0                       # Number of controller write bursts merged with an existing one (Count)
system.mem_ctrl.numRdRetry                       5665                       # Number of times read queue was full causing retry (Count)
system.mem_ctrl.numWrRetry                          0                       # Number of times write queue was full causing retry (Count)
system.mem_ctrl.readPktSize::0                      0                       # Read request sizes (log2) (Count)
system.mem_ctrl.readPktSize::1                      0                       # Read request sizes (log2) (Count)
system.mem_ctrl.readPktSize::2                      0                       # Read request sizes (log2) (Count)
system.mem_ctrl.readPktSize::3                      0                       # Read request sizes (log2) (Count)
system.mem_ctrl.readPktSize::4                      0                       # Read request sizes (log2) (Count)
system.mem_ctrl.readPktSize::5                      0                       # Read request sizes (log2) (Count)
system.mem_ctrl.readPktSize::6                   5921                       # Read request sizes (log2) (Count)
system.mem_ctrl.writePktSize::0                     0                       # Write request sizes (log2) (Count)
system.mem_ctrl.writePktSize::1                     0                       # Write request sizes (log2) (Count)
system.mem_ctrl.writePktSize::2                     0                       # Write request sizes (log2) (Count)
system.mem_ctrl.writePktSize::3                     0                       # Write request sizes (log2) (Count)
system.mem_ctrl.writePktSize::4                     0                       # Write request sizes (log2) (Count)
system.mem_ctrl.writePktSize::5                     0                       # Write request sizes (log2) (Count)
system.mem_ctrl.writePktSize::6                     0                       # Write request sizes (log2) (Count)
system.mem_ctrl.bytesReadWrQ                        0                       # Total number of bytes read from write queue (Byte)
system.mem_ctrl.bytesReadSys                   378944                       # Total read bytes from the system interface side (Byte)
system.mem_ctrl.bytesWrittenSys                     0                       # Total written bytes from the system interface side (Byte)
system.mem_ctrl.avgRdBWSys               3785351820.03436279                       # Average system read bandwidth in Byte/s ((Byte/Second))
system.mem_ctrl.avgWrBWSys                 0.00000000                       # Average system write bandwidth in Byte/s ((Byte/Second))
system.mem_ctrl.totGap                   18446604006828812288                       # Total gap between requests (Tick)
system.mem_ctrl.avgGap                   3115454147412398.50                       # Average gap between requests ((Tick/Count))
system.mem_ctrl.avgORBLen                    255.8695                       # Average ORB length ((Count/Tick))
system.mem_ctrl.avgLocRdQLenStrt               180.74                       # Average local read queue length ((Count/Tick))
system.mem_ctrl.avgLocWrQLenStrt                23.16                       # Average local write queue length ((Count/Tick))
system.mem_ctrl.avgFarRdQLenStrt                 0.00                       # Average far read queue length ((Count/Tick))
system.mem_ctrl.avgFarWrQLenStrt                 0.00                       # Average far write queue length ((Count/Tick))
system.mem_ctrl.avgLocRdQLenEnq                181.74                       # Average local read queue length when enqueuing ((Count/Tick))
system.mem_ctrl.avgLocWrQLenEnq                 27.89                       # Average local write queue length when enqueuing ((Count/Tick))
system.mem_ctrl.avgFarRdQLenEnq                  1.00                       # Average far read queue length when enqueuing ((Count/Tick))
system.mem_ctrl.avgFarWrQLenEnq                  0.00                       # Average far write queue length when enqueuing ((Count/Tick))
system.mem_ctrl.numWrBacks                          0                       # Total number of write backs from DRAM cache to main memory (Unspecified)
system.mem_ctrl.totNumConf                          0                       # Total number of packets conflicted on DRAM cache (Unspecified)
system.mem_ctrl.totNumORBFull                    5665                       # Total number of packets ORB full (Unspecified)
system.mem_ctrl.totNumCRBFull                       0                       # Total number of packets conflicted yet couldn't enter confBuffer (Unspecified)
system.mem_ctrl.maxNumConf                          0                       # Maximum number of packets conflicted on DRAM cache (Unspecified)
system.mem_ctrl.sentLocRdPort                    5746                       # stat (Unspecified)
system.mem_ctrl.sentLocWrPort                    5666                       # stat (Unspecified)
system.mem_ctrl.failedLocRdPort                 11227                       # stat (Unspecified)
system.mem_ctrl.failedLocWrPort                 11098                       # stat (Unspecified)
system.mem_ctrl.recvdRdPort                         0                       # stat (Unspecified)
system.mem_ctrl.sentFarRdPort                    5711                       # stat (Unspecified)
system.mem_ctrl.sentFarWrPort                       0                       # stat (Unspecified)
system.mem_ctrl.failedFarRdPort                     0                       # stat (Unspecified)
system.mem_ctrl.failedFarWrPort                     0                       # stat (Unspecified)
system.mem_ctrl.totPktsServiceTime           25006586                       # stat (Unspecified)
system.mem_ctrl.totPktsORBTime               25006586                       # stat (Unspecified)
system.mem_ctrl.totTimeFarRdtoSend                  0                       # stat (Unspecified)
system.mem_ctrl.totTimeFarRdtoRecv            1569197                       # stat (Unspecified)
system.mem_ctrl.totTimeFarWrtoSend                  0                       # stat (Unspecified)
system.mem_ctrl.totTimeInLocRead             20732918                       # stat (Unspecified)
system.mem_ctrl.totTimeInLocWrite             2699312                       # stat (Unspecified)
system.mem_ctrl.totTimeInFarRead              1569197                       # stat (Unspecified)
system.mem_ctrl.numTotHits                          0                       # stat (Unspecified)
system.mem_ctrl.numTotMisses                     5921                       # stat (Unspecified)
system.mem_ctrl.numColdMisses                    5920                       # stat (Unspecified)
system.mem_ctrl.numHotMisses                        1                       # stat (Unspecified)
system.mem_ctrl.numRdMissClean                   5921                       # stat (Unspecified)
system.mem_ctrl.numRdMissDirty                      0                       # stat (Unspecified)
system.mem_ctrl.numRdHit                            0                       # stat (Unspecified)
system.mem_ctrl.numWrMissClean                      0                       # stat (Unspecified)
system.mem_ctrl.numWrMissDirty                      0                       # stat (Unspecified)
system.mem_ctrl.numWrHit                            0                       # stat (Unspecified)
system.mem_ctrl.numRdHitDirty                       0                       # stat (Unspecified)
system.mem_ctrl.numRdHitClean                       0                       # stat (Unspecified)
system.mem_ctrl.numWrHitDirty                       0                       # stat (Unspecified)
system.mem_ctrl.numWrHitClean                       0                       # stat (Unspecified)
system.mem_ctrl.power_state.pwrStateResidencyTicks::UNDEFINED    100108000                       # Cumulative time (in ticks) in various power states (Tick)
system.workload.inst.arm                            0                       # number of arm instructions executed (Count)
system.workload.inst.quiesce                        0                       # number of quiesce instructions executed (Count)

---------- End Simulation Statistics   ----------
