
---------- Begin Simulation Statistics ----------
simSeconds                                   0.000100                       # Number of seconds simulated (Second)
simTicks                                    100071000                       # Number of ticks simulated (Tick)
finalTick                                   100071000                       # Number of ticks from beginning of simulation (restored from checkpoints and never reset) (Tick)
simFreq                                  1000000000000                       # The number of ticks per simulated second ((Tick/Second))
hostSeconds                                      0.28                       # Real time elapsed on the host (Second)
hostTickRate                                352134058                       # The number of ticks simulated per host second (ticks/s) ((Tick/Second))
hostMemory                                    8500640                       # Number of bytes of host memory used (Byte)
system.clk_domain.clock                           200                       # Clock period in ticks (Tick)
system.clk_domain.voltage_domain.voltage            1                       # Voltage in Volts (Volt)
system.far_mem_ctrl0.avgPriority_writebacks::samples       902.00                       # Average QoS priority value for accepted requests (Count)
system.far_mem_ctrl0.priorityMinLatency  0.000004559776                       # per QoS priority minimum request to response latency (Second)
system.far_mem_ctrl0.priorityMaxLatency  0.000041926492                       # per QoS priority maximum request to response latency (Second)
system.far_mem_ctrl0.numReadWriteTurnArounds           44                       # Number of turnarounds from READ to WRITE (Count)
system.far_mem_ctrl0.numWriteReadTurnArounds           44                       # Number of turnarounds from WRITE to READ (Count)
system.far_mem_ctrl0.numStayReadState            1654                       # Number of times bus staying in READ state (Count)
system.far_mem_ctrl0.numStayWriteState            796                       # Number of times bus staying in WRITE state (Count)
system.far_mem_ctrl0.readReqs                       0                       # Number of read requests accepted (Count)
system.far_mem_ctrl0.writeReqs                    902                       # Number of write requests accepted (Count)
system.far_mem_ctrl0.readBursts                     0                       # Number of controller read bursts, including those serviced by the write queue (Count)
system.far_mem_ctrl0.writeBursts                  902                       # Number of controller write bursts, including those merged in the write queue (Count)
system.far_mem_ctrl0.servicedByWrQ                  0                       # Number of controller read bursts serviced by the write queue (Count)
system.far_mem_ctrl0.mergedWrBursts                 0                       # Number of controller write bursts merged with an existing one (Count)
system.far_mem_ctrl0.neitherReadNorWriteReqs            0                       # Number of requests that are neither read nor write (Count)
system.far_mem_ctrl0.avgRdQLen                   0.00                       # Average read queue length when enqueuing ((Count/Tick))
system.far_mem_ctrl0.avgWrQLen                  47.23                       # Average write queue length when enqueuing ((Count/Tick))
system.far_mem_ctrl0.numRdRetry                     0                       # Number of times read queue was full causing retry (Count)
system.far_mem_ctrl0.numWrRetry                     0                       # Number of times write queue was full causing retry (Count)
system.far_mem_ctrl0.readPktSize::0                 0                       # Read request sizes (log2) (Count)
system.far_mem_ctrl0.readPktSize::1                 0                       # Read request sizes (log2) (Count)
system.far_mem_ctrl0.readPktSize::2                 0                       # Read request sizes (log2) (Count)
system.far_mem_ctrl0.readPktSize::3                 0                       # Read request sizes (log2) (Count)
system.far_mem_ctrl0.readPktSize::4                 0                       # Read request sizes (log2) (Count)
system.far_mem_ctrl0.readPktSize::5                 0                       # Read request sizes (log2) (Count)
system.far_mem_ctrl0.readPktSize::6                 0                       # Read request sizes (log2) (Count)
system.far_mem_ctrl0.writePktSize::0                0                       # Write request sizes (log2) (Count)
system.far_mem_ctrl0.writePktSize::1                0                       # Write request sizes (log2) (Count)
system.far_mem_ctrl0.writePktSize::2                0                       # Write request sizes (log2) (Count)
system.far_mem_ctrl0.writePktSize::3                0                       # Write request sizes (log2) (Count)
system.far_mem_ctrl0.writePktSize::4                0                       # Write request sizes (log2) (Count)
system.far_mem_ctrl0.writePktSize::5                0                       # Write request sizes (log2) (Count)
system.far_mem_ctrl0.writePktSize::6              902                       # Write request sizes (log2) (Count)
system.far_mem_ctrl0.rdQLenPdf::0                   0                       # What read queue length does an incoming req see (Count)
system.far_mem_ctrl0.rdQLenPdf::1                   0                       # What read queue length does an incoming req see (Count)
system.far_mem_ctrl0.rdQLenPdf::2                   0                       # What read queue length does an incoming req see (Count)
system.far_mem_ctrl0.rdQLenPdf::3                   0                       # What read queue length does an incoming req see (Count)
system.far_mem_ctrl0.rdQLenPdf::4                   0                       # What read queue length does an incoming req see (Count)
system.far_mem_ctrl0.rdQLenPdf::5                   0                       # What read queue length does an incoming req see (Count)
system.far_mem_ctrl0.rdQLenPdf::6                   0                       # What read queue length does an incoming req see (Count)
system.far_mem_ctrl0.rdQLenPdf::7                   0                       # What read queue length does an incoming req see (Count)
system.far_mem_ctrl0.rdQLenPdf::8                   0                       # What read queue length does an incoming req see (Count)
system.far_mem_ctrl0.rdQLenPdf::9                   0                       # What read queue length does an incoming req see (Count)
system.far_mem_ctrl0.rdQLenPdf::10                  0                       # What read queue length does an incoming req see (Count)
system.far_mem_ctrl0.rdQLenPdf::11                  0                       # What read queue length does an incoming req see (Count)
system.far_mem_ctrl0.rdQLenPdf::12                  0                       # What read queue length does an incoming req see (Count)
system.far_mem_ctrl0.rdQLenPdf::13                  0                       # What read queue length does an incoming req see (Count)
system.far_mem_ctrl0.rdQLenPdf::14                  0                       # What read queue length does an incoming req see (Count)
system.far_mem_ctrl0.rdQLenPdf::15                  0                       # What read queue length does an incoming req see (Count)
system.far_mem_ctrl0.rdQLenPdf::16                  0                       # What read queue length does an incoming req see (Count)
system.far_mem_ctrl0.rdQLenPdf::17                  0                       # What read queue length does an incoming req see (Count)
system.far_mem_ctrl0.rdQLenPdf::18                  0                       # What read queue length does an incoming req see (Count)
system.far_mem_ctrl0.rdQLenPdf::19                  0                       # What read queue length does an incoming req see (Count)
system.far_mem_ctrl0.rdQLenPdf::20                  0                       # What read queue length does an incoming req see (Count)
system.far_mem_ctrl0.rdQLenPdf::21                  0                       # What read queue length does an incoming req see (Count)
system.far_mem_ctrl0.rdQLenPdf::22                  0                       # What read queue length does an incoming req see (Count)
system.far_mem_ctrl0.rdQLenPdf::23                  0                       # What read queue length does an incoming req see (Count)
system.far_mem_ctrl0.rdQLenPdf::24                  0                       # What read queue length does an incoming req see (Count)
system.far_mem_ctrl0.rdQLenPdf::25                  0                       # What read queue length does an incoming req see (Count)
system.far_mem_ctrl0.rdQLenPdf::26                  0                       # What read queue length does an incoming req see (Count)
system.far_mem_ctrl0.rdQLenPdf::27                  0                       # What read queue length does an incoming req see (Count)
system.far_mem_ctrl0.rdQLenPdf::28                  0                       # What read queue length does an incoming req see (Count)
system.far_mem_ctrl0.rdQLenPdf::29                  0                       # What read queue length does an incoming req see (Count)
system.far_mem_ctrl0.rdQLenPdf::30                  0                       # What read queue length does an incoming req see (Count)
system.far_mem_ctrl0.rdQLenPdf::31                  0                       # What read queue length does an incoming req see (Count)
system.far_mem_ctrl0.rdQLenPdf::32                  0                       # What read queue length does an incoming req see (Count)
system.far_mem_ctrl0.rdQLenPdf::33                  0                       # What read queue length does an incoming req see (Count)
system.far_mem_ctrl0.rdQLenPdf::34                  0                       # What read queue length does an incoming req see (Count)
system.far_mem_ctrl0.rdQLenPdf::35                  0                       # What read queue length does an incoming req see (Count)
system.far_mem_ctrl0.rdQLenPdf::36                  0                       # What read queue length does an incoming req see (Count)
system.far_mem_ctrl0.rdQLenPdf::37                  0                       # What read queue length does an incoming req see (Count)
system.far_mem_ctrl0.rdQLenPdf::38                  0                       # What read queue length does an incoming req see (Count)
system.far_mem_ctrl0.rdQLenPdf::39                  0                       # What read queue length does an incoming req see (Count)
system.far_mem_ctrl0.rdQLenPdf::40                  0                       # What read queue length does an incoming req see (Count)
system.far_mem_ctrl0.rdQLenPdf::41                  0                       # What read queue length does an incoming req see (Count)
system.far_mem_ctrl0.rdQLenPdf::42                  0                       # What read queue length does an incoming req see (Count)
system.far_mem_ctrl0.rdQLenPdf::43                  0                       # What read queue length does an incoming req see (Count)
system.far_mem_ctrl0.rdQLenPdf::44                  0                       # What read queue length does an incoming req see (Count)
system.far_mem_ctrl0.rdQLenPdf::45                  0                       # What read queue length does an incoming req see (Count)
system.far_mem_ctrl0.rdQLenPdf::46                  0                       # What read queue length does an incoming req see (Count)
system.far_mem_ctrl0.rdQLenPdf::47                  0                       # What read queue length does an incoming req see (Count)
system.far_mem_ctrl0.rdQLenPdf::48                  0                       # What read queue length does an incoming req see (Count)
system.far_mem_ctrl0.rdQLenPdf::49                  0                       # What read queue length does an incoming req see (Count)
system.far_mem_ctrl0.rdQLenPdf::50                  0                       # What read queue length does an incoming req see (Count)
system.far_mem_ctrl0.rdQLenPdf::51                  0                       # What read queue length does an incoming req see (Count)
system.far_mem_ctrl0.rdQLenPdf::52                  0                       # What read queue length does an incoming req see (Count)
system.far_mem_ctrl0.rdQLenPdf::53                  0                       # What read queue length does an incoming req see (Count)
system.far_mem_ctrl0.rdQLenPdf::54                  0                       # What read queue length does an incoming req see (Count)
system.far_mem_ctrl0.rdQLenPdf::55                  0                       # What read queue length does an incoming req see (Count)
system.far_mem_ctrl0.rdQLenPdf::56                  0                       # What read queue length does an incoming req see (Count)
system.far_mem_ctrl0.rdQLenPdf::57                  0                       # What read queue length does an incoming req see (Count)
system.far_mem_ctrl0.rdQLenPdf::58                  0                       # What read queue length does an incoming req see (Count)
system.far_mem_ctrl0.rdQLenPdf::59                  0                       # What read queue length does an incoming req see (Count)
system.far_mem_ctrl0.rdQLenPdf::60                  0                       # What read queue length does an incoming req see (Count)
system.far_mem_ctrl0.rdQLenPdf::61                  0                       # What read queue length does an incoming req see (Count)
system.far_mem_ctrl0.rdQLenPdf::62                  0                       # What read queue length does an incoming req see (Count)
system.far_mem_ctrl0.rdQLenPdf::63                  0                       # What read queue length does an incoming req see (Count)
system.far_mem_ctrl0.rdQLenPdf::64                  0                       # What read queue length does an incoming req see (Count)
system.far_mem_ctrl0.rdQLenPdf::65                  0                       # What read queue length does an incoming req see (Count)
system.far_mem_ctrl0.rdQLenPdf::66                  0                       # What read queue length does an incoming req see (Count)
system.far_mem_ctrl0.rdQLenPdf::67                  0                       # What read queue length does an incoming req see (Count)
system.far_mem_ctrl0.rdQLenPdf::68                  0                       # What read queue length does an incoming req see (Count)
system.far_mem_ctrl0.rdQLenPdf::69                  0                       # What read queue length does an incoming req see (Count)
system.far_mem_ctrl0.rdQLenPdf::70                  0                       # What read queue length does an incoming req see (Count)
system.far_mem_ctrl0.rdQLenPdf::71                  0                       # What read queue length does an incoming req see (Count)
system.far_mem_ctrl0.rdQLenPdf::72                  0                       # What read queue length does an incoming req see (Count)
system.far_mem_ctrl0.rdQLenPdf::73                  0                       # What read queue length does an incoming req see (Count)
system.far_mem_ctrl0.rdQLenPdf::74                  0                       # What read queue length does an incoming req see (Count)
system.far_mem_ctrl0.rdQLenPdf::75                  0                       # What read queue length does an incoming req see (Count)
system.far_mem_ctrl0.rdQLenPdf::76                  0                       # What read queue length does an incoming req see (Count)
system.far_mem_ctrl0.rdQLenPdf::77                  0                       # What read queue length does an incoming req see (Count)
system.far_mem_ctrl0.rdQLenPdf::78                  0                       # What read queue length does an incoming req see (Count)
system.far_mem_ctrl0.rdQLenPdf::79                  0                       # What read queue length does an incoming req see (Count)
system.far_mem_ctrl0.rdQLenPdf::80                  0                       # What read queue length does an incoming req see (Count)
system.far_mem_ctrl0.rdQLenPdf::81                  0                       # What read queue length does an incoming req see (Count)
system.far_mem_ctrl0.rdQLenPdf::82                  0                       # What read queue length does an incoming req see (Count)
system.far_mem_ctrl0.rdQLenPdf::83                  0                       # What read queue length does an incoming req see (Count)
system.far_mem_ctrl0.rdQLenPdf::84                  0                       # What read queue length does an incoming req see (Count)
system.far_mem_ctrl0.rdQLenPdf::85                  0                       # What read queue length does an incoming req see (Count)
system.far_mem_ctrl0.rdQLenPdf::86                  0                       # What read queue length does an incoming req see (Count)
system.far_mem_ctrl0.rdQLenPdf::87                  0                       # What read queue length does an incoming req see (Count)
system.far_mem_ctrl0.rdQLenPdf::88                  0                       # What read queue length does an incoming req see (Count)
system.far_mem_ctrl0.rdQLenPdf::89                  0                       # What read queue length does an incoming req see (Count)
system.far_mem_ctrl0.rdQLenPdf::90                  0                       # What read queue length does an incoming req see (Count)
system.far_mem_ctrl0.rdQLenPdf::91                  0                       # What read queue length does an incoming req see (Count)
system.far_mem_ctrl0.rdQLenPdf::92                  0                       # What read queue length does an incoming req see (Count)
system.far_mem_ctrl0.rdQLenPdf::93                  0                       # What read queue length does an incoming req see (Count)
system.far_mem_ctrl0.rdQLenPdf::94                  0                       # What read queue length does an incoming req see (Count)
system.far_mem_ctrl0.rdQLenPdf::95                  0                       # What read queue length does an incoming req see (Count)
system.far_mem_ctrl0.rdQLenPdf::96                  0                       # What read queue length does an incoming req see (Count)
system.far_mem_ctrl0.rdQLenPdf::97                  0                       # What read queue length does an incoming req see (Count)
system.far_mem_ctrl0.rdQLenPdf::98                  0                       # What read queue length does an incoming req see (Count)
system.far_mem_ctrl0.rdQLenPdf::99                  0                       # What read queue length does an incoming req see (Count)
system.far_mem_ctrl0.rdQLenPdf::100                 0                       # What read queue length does an incoming req see (Count)
system.far_mem_ctrl0.rdQLenPdf::101                 0                       # What read queue length does an incoming req see (Count)
system.far_mem_ctrl0.rdQLenPdf::102                 0                       # What read queue length does an incoming req see (Count)
system.far_mem_ctrl0.rdQLenPdf::103                 0                       # What read queue length does an incoming req see (Count)
system.far_mem_ctrl0.rdQLenPdf::104                 0                       # What read queue length does an incoming req see (Count)
system.far_mem_ctrl0.rdQLenPdf::105                 0                       # What read queue length does an incoming req see (Count)
system.far_mem_ctrl0.rdQLenPdf::106                 0                       # What read queue length does an incoming req see (Count)
system.far_mem_ctrl0.rdQLenPdf::107                 0                       # What read queue length does an incoming req see (Count)
system.far_mem_ctrl0.rdQLenPdf::108                 0                       # What read queue length does an incoming req see (Count)
system.far_mem_ctrl0.rdQLenPdf::109                 0                       # What read queue length does an incoming req see (Count)
system.far_mem_ctrl0.rdQLenPdf::110                 0                       # What read queue length does an incoming req see (Count)
system.far_mem_ctrl0.rdQLenPdf::111                 0                       # What read queue length does an incoming req see (Count)
system.far_mem_ctrl0.rdQLenPdf::112                 0                       # What read queue length does an incoming req see (Count)
system.far_mem_ctrl0.rdQLenPdf::113                 0                       # What read queue length does an incoming req see (Count)
system.far_mem_ctrl0.rdQLenPdf::114                 0                       # What read queue length does an incoming req see (Count)
system.far_mem_ctrl0.rdQLenPdf::115                 0                       # What read queue length does an incoming req see (Count)
system.far_mem_ctrl0.rdQLenPdf::116                 0                       # What read queue length does an incoming req see (Count)
system.far_mem_ctrl0.rdQLenPdf::117                 0                       # What read queue length does an incoming req see (Count)
system.far_mem_ctrl0.rdQLenPdf::118                 0                       # What read queue length does an incoming req see (Count)
system.far_mem_ctrl0.rdQLenPdf::119                 0                       # What read queue length does an incoming req see (Count)
system.far_mem_ctrl0.rdQLenPdf::120                 0                       # What read queue length does an incoming req see (Count)
system.far_mem_ctrl0.rdQLenPdf::121                 0                       # What read queue length does an incoming req see (Count)
system.far_mem_ctrl0.rdQLenPdf::122                 0                       # What read queue length does an incoming req see (Count)
system.far_mem_ctrl0.rdQLenPdf::123                 0                       # What read queue length does an incoming req see (Count)
system.far_mem_ctrl0.rdQLenPdf::124                 0                       # What read queue length does an incoming req see (Count)
system.far_mem_ctrl0.rdQLenPdf::125                 0                       # What read queue length does an incoming req see (Count)
system.far_mem_ctrl0.rdQLenPdf::126                 0                       # What read queue length does an incoming req see (Count)
system.far_mem_ctrl0.rdQLenPdf::127                 0                       # What read queue length does an incoming req see (Count)
system.far_mem_ctrl0.wrQLenPdf::0                   1                       # What write queue length does an incoming req see (Count)
system.far_mem_ctrl0.wrQLenPdf::1                   1                       # What write queue length does an incoming req see (Count)
system.far_mem_ctrl0.wrQLenPdf::2                   1                       # What write queue length does an incoming req see (Count)
system.far_mem_ctrl0.wrQLenPdf::3                   1                       # What write queue length does an incoming req see (Count)
system.far_mem_ctrl0.wrQLenPdf::4                   1                       # What write queue length does an incoming req see (Count)
system.far_mem_ctrl0.wrQLenPdf::5                   1                       # What write queue length does an incoming req see (Count)
system.far_mem_ctrl0.wrQLenPdf::6                   1                       # What write queue length does an incoming req see (Count)
system.far_mem_ctrl0.wrQLenPdf::7                   1                       # What write queue length does an incoming req see (Count)
system.far_mem_ctrl0.wrQLenPdf::8                   1                       # What write queue length does an incoming req see (Count)
system.far_mem_ctrl0.wrQLenPdf::9                   1                       # What write queue length does an incoming req see (Count)
system.far_mem_ctrl0.wrQLenPdf::10                  1                       # What write queue length does an incoming req see (Count)
system.far_mem_ctrl0.wrQLenPdf::11                  1                       # What write queue length does an incoming req see (Count)
system.far_mem_ctrl0.wrQLenPdf::12                  1                       # What write queue length does an incoming req see (Count)
system.far_mem_ctrl0.wrQLenPdf::13                  1                       # What write queue length does an incoming req see (Count)
system.far_mem_ctrl0.wrQLenPdf::14                  1                       # What write queue length does an incoming req see (Count)
system.far_mem_ctrl0.wrQLenPdf::15                  1                       # What write queue length does an incoming req see (Count)
system.far_mem_ctrl0.wrQLenPdf::16                  1                       # What write queue length does an incoming req see (Count)
system.far_mem_ctrl0.wrQLenPdf::17                  1                       # What write queue length does an incoming req see (Count)
system.far_mem_ctrl0.wrQLenPdf::18                  1                       # What write queue length does an incoming req see (Count)
system.far_mem_ctrl0.wrQLenPdf::19                  1                       # What write queue length does an incoming req see (Count)
system.far_mem_ctrl0.wrQLenPdf::20                  1                       # What write queue length does an incoming req see (Count)
system.far_mem_ctrl0.wrQLenPdf::21                  1                       # What write queue length does an incoming req see (Count)
system.far_mem_ctrl0.wrQLenPdf::22                  1                       # What write queue length does an incoming req see (Count)
system.far_mem_ctrl0.wrQLenPdf::23                  1                       # What write queue length does an incoming req see (Count)
system.far_mem_ctrl0.wrQLenPdf::24                  1                       # What write queue length does an incoming req see (Count)
system.far_mem_ctrl0.wrQLenPdf::25                  1                       # What write queue length does an incoming req see (Count)
system.far_mem_ctrl0.wrQLenPdf::26                  1                       # What write queue length does an incoming req see (Count)
system.far_mem_ctrl0.wrQLenPdf::27                  1                       # What write queue length does an incoming req see (Count)
system.far_mem_ctrl0.wrQLenPdf::28                  1                       # What write queue length does an incoming req see (Count)
system.far_mem_ctrl0.wrQLenPdf::29                  1                       # What write queue length does an incoming req see (Count)
system.far_mem_ctrl0.wrQLenPdf::30                  1                       # What write queue length does an incoming req see (Count)
system.far_mem_ctrl0.wrQLenPdf::31                  1                       # What write queue length does an incoming req see (Count)
system.far_mem_ctrl0.wrQLenPdf::32                  1                       # What write queue length does an incoming req see (Count)
system.far_mem_ctrl0.wrQLenPdf::33                  1                       # What write queue length does an incoming req see (Count)
system.far_mem_ctrl0.wrQLenPdf::34                  1                       # What write queue length does an incoming req see (Count)
system.far_mem_ctrl0.wrQLenPdf::35                  1                       # What write queue length does an incoming req see (Count)
system.far_mem_ctrl0.wrQLenPdf::36                  1                       # What write queue length does an incoming req see (Count)
system.far_mem_ctrl0.wrQLenPdf::37                  1                       # What write queue length does an incoming req see (Count)
system.far_mem_ctrl0.wrQLenPdf::38                  1                       # What write queue length does an incoming req see (Count)
system.far_mem_ctrl0.wrQLenPdf::39                  1                       # What write queue length does an incoming req see (Count)
system.far_mem_ctrl0.wrQLenPdf::40                  1                       # What write queue length does an incoming req see (Count)
system.far_mem_ctrl0.wrQLenPdf::41                  1                       # What write queue length does an incoming req see (Count)
system.far_mem_ctrl0.wrQLenPdf::42                  1                       # What write queue length does an incoming req see (Count)
system.far_mem_ctrl0.wrQLenPdf::43                  1                       # What write queue length does an incoming req see (Count)
system.far_mem_ctrl0.wrQLenPdf::44                  1                       # What write queue length does an incoming req see (Count)
system.far_mem_ctrl0.wrQLenPdf::45                  1                       # What write queue length does an incoming req see (Count)
system.far_mem_ctrl0.wrQLenPdf::46                  1                       # What write queue length does an incoming req see (Count)
system.far_mem_ctrl0.wrQLenPdf::47                 45                       # What write queue length does an incoming req see (Count)
system.far_mem_ctrl0.wrQLenPdf::48                 49                       # What write queue length does an incoming req see (Count)
system.far_mem_ctrl0.wrQLenPdf::49                 48                       # What write queue length does an incoming req see (Count)
system.far_mem_ctrl0.wrQLenPdf::50                 49                       # What write queue length does an incoming req see (Count)
system.far_mem_ctrl0.wrQLenPdf::51                 46                       # What write queue length does an incoming req see (Count)
system.far_mem_ctrl0.wrQLenPdf::52                 47                       # What write queue length does an incoming req see (Count)
system.far_mem_ctrl0.wrQLenPdf::53                 46                       # What write queue length does an incoming req see (Count)
system.far_mem_ctrl0.wrQLenPdf::54                 48                       # What write queue length does an incoming req see (Count)
system.far_mem_ctrl0.wrQLenPdf::55                 49                       # What write queue length does an incoming req see (Count)
system.far_mem_ctrl0.wrQLenPdf::56                 49                       # What write queue length does an incoming req see (Count)
system.far_mem_ctrl0.wrQLenPdf::57                 50                       # What write queue length does an incoming req see (Count)
system.far_mem_ctrl0.wrQLenPdf::58                 46                       # What write queue length does an incoming req see (Count)
system.far_mem_ctrl0.wrQLenPdf::59                 48                       # What write queue length does an incoming req see (Count)
system.far_mem_ctrl0.wrQLenPdf::60                 50                       # What write queue length does an incoming req see (Count)
system.far_mem_ctrl0.wrQLenPdf::61                 47                       # What write queue length does an incoming req see (Count)
system.far_mem_ctrl0.wrQLenPdf::62                 50                       # What write queue length does an incoming req see (Count)
system.far_mem_ctrl0.wrQLenPdf::63                 44                       # What write queue length does an incoming req see (Count)
system.far_mem_ctrl0.wrQLenPdf::64                 44                       # What write queue length does an incoming req see (Count)
system.far_mem_ctrl0.wrQLenPdf::65                  0                       # What write queue length does an incoming req see (Count)
system.far_mem_ctrl0.wrQLenPdf::66                  0                       # What write queue length does an incoming req see (Count)
system.far_mem_ctrl0.wrQLenPdf::67                  0                       # What write queue length does an incoming req see (Count)
system.far_mem_ctrl0.wrQLenPdf::68                  0                       # What write queue length does an incoming req see (Count)
system.far_mem_ctrl0.wrQLenPdf::69                  0                       # What write queue length does an incoming req see (Count)
system.far_mem_ctrl0.wrQLenPdf::70                  0                       # What write queue length does an incoming req see (Count)
system.far_mem_ctrl0.wrQLenPdf::71                  0                       # What write queue length does an incoming req see (Count)
system.far_mem_ctrl0.wrQLenPdf::72                  0                       # What write queue length does an incoming req see (Count)
system.far_mem_ctrl0.wrQLenPdf::73                  0                       # What write queue length does an incoming req see (Count)
system.far_mem_ctrl0.wrQLenPdf::74                  0                       # What write queue length does an incoming req see (Count)
system.far_mem_ctrl0.wrQLenPdf::75                  0                       # What write queue length does an incoming req see (Count)
system.far_mem_ctrl0.wrQLenPdf::76                  0                       # What write queue length does an incoming req see (Count)
system.far_mem_ctrl0.wrQLenPdf::77                  0                       # What write queue length does an incoming req see (Count)
system.far_mem_ctrl0.wrQLenPdf::78                  0                       # What write queue length does an incoming req see (Count)
system.far_mem_ctrl0.wrQLenPdf::79                  0                       # What write queue length does an incoming req see (Count)
system.far_mem_ctrl0.wrQLenPdf::80                  0                       # What write queue length does an incoming req see (Count)
system.far_mem_ctrl0.wrQLenPdf::81                  0                       # What write queue length does an incoming req see (Count)
system.far_mem_ctrl0.wrQLenPdf::82                  0                       # What write queue length does an incoming req see (Count)
system.far_mem_ctrl0.wrQLenPdf::83                  0                       # What write queue length does an incoming req see (Count)
system.far_mem_ctrl0.wrQLenPdf::84                  0                       # What write queue length does an incoming req see (Count)
system.far_mem_ctrl0.wrQLenPdf::85                  0                       # What write queue length does an incoming req see (Count)
system.far_mem_ctrl0.wrQLenPdf::86                  0                       # What write queue length does an incoming req see (Count)
system.far_mem_ctrl0.wrQLenPdf::87                  0                       # What write queue length does an incoming req see (Count)
system.far_mem_ctrl0.wrQLenPdf::88                  0                       # What write queue length does an incoming req see (Count)
system.far_mem_ctrl0.wrQLenPdf::89                  0                       # What write queue length does an incoming req see (Count)
system.far_mem_ctrl0.wrQLenPdf::90                  0                       # What write queue length does an incoming req see (Count)
system.far_mem_ctrl0.wrQLenPdf::91                  0                       # What write queue length does an incoming req see (Count)
system.far_mem_ctrl0.wrQLenPdf::92                  0                       # What write queue length does an incoming req see (Count)
system.far_mem_ctrl0.wrQLenPdf::93                  0                       # What write queue length does an incoming req see (Count)
system.far_mem_ctrl0.wrQLenPdf::94                  0                       # What write queue length does an incoming req see (Count)
system.far_mem_ctrl0.wrQLenPdf::95                  0                       # What write queue length does an incoming req see (Count)
system.far_mem_ctrl0.wrQLenPdf::96                  0                       # What write queue length does an incoming req see (Count)
system.far_mem_ctrl0.wrQLenPdf::97                  0                       # What write queue length does an incoming req see (Count)
system.far_mem_ctrl0.wrQLenPdf::98                  0                       # What write queue length does an incoming req see (Count)
system.far_mem_ctrl0.wrQLenPdf::99                  0                       # What write queue length does an incoming req see (Count)
system.far_mem_ctrl0.wrQLenPdf::100                 0                       # What write queue length does an incoming req see (Count)
system.far_mem_ctrl0.wrQLenPdf::101                 0                       # What write queue length does an incoming req see (Count)
system.far_mem_ctrl0.wrQLenPdf::102                 0                       # What write queue length does an incoming req see (Count)
system.far_mem_ctrl0.wrQLenPdf::103                 0                       # What write queue length does an incoming req see (Count)
system.far_mem_ctrl0.wrQLenPdf::104                 0                       # What write queue length does an incoming req see (Count)
system.far_mem_ctrl0.wrQLenPdf::105                 0                       # What write queue length does an incoming req see (Count)
system.far_mem_ctrl0.wrQLenPdf::106                 0                       # What write queue length does an incoming req see (Count)
system.far_mem_ctrl0.wrQLenPdf::107                 0                       # What write queue length does an incoming req see (Count)
system.far_mem_ctrl0.wrQLenPdf::108                 0                       # What write queue length does an incoming req see (Count)
system.far_mem_ctrl0.wrQLenPdf::109                 0                       # What write queue length does an incoming req see (Count)
system.far_mem_ctrl0.wrQLenPdf::110                 0                       # What write queue length does an incoming req see (Count)
system.far_mem_ctrl0.wrQLenPdf::111                 0                       # What write queue length does an incoming req see (Count)
system.far_mem_ctrl0.wrQLenPdf::112                 0                       # What write queue length does an incoming req see (Count)
system.far_mem_ctrl0.wrQLenPdf::113                 0                       # What write queue length does an incoming req see (Count)
system.far_mem_ctrl0.wrQLenPdf::114                 0                       # What write queue length does an incoming req see (Count)
system.far_mem_ctrl0.wrQLenPdf::115                 0                       # What write queue length does an incoming req see (Count)
system.far_mem_ctrl0.wrQLenPdf::116                 0                       # What write queue length does an incoming req see (Count)
system.far_mem_ctrl0.wrQLenPdf::117                 0                       # What write queue length does an incoming req see (Count)
system.far_mem_ctrl0.wrQLenPdf::118                 0                       # What write queue length does an incoming req see (Count)
system.far_mem_ctrl0.wrQLenPdf::119                 0                       # What write queue length does an incoming req see (Count)
system.far_mem_ctrl0.wrQLenPdf::120                 0                       # What write queue length does an incoming req see (Count)
system.far_mem_ctrl0.wrQLenPdf::121                 0                       # What write queue length does an incoming req see (Count)
system.far_mem_ctrl0.wrQLenPdf::122                 0                       # What write queue length does an incoming req see (Count)
system.far_mem_ctrl0.wrQLenPdf::123                 0                       # What write queue length does an incoming req see (Count)
system.far_mem_ctrl0.wrQLenPdf::124                 0                       # What write queue length does an incoming req see (Count)
system.far_mem_ctrl0.wrQLenPdf::125                 0                       # What write queue length does an incoming req see (Count)
system.far_mem_ctrl0.wrQLenPdf::126                 0                       # What write queue length does an incoming req see (Count)
system.far_mem_ctrl0.wrQLenPdf::127                 0                       # What write queue length does an incoming req see (Count)
system.far_mem_ctrl0.rdPerTurnAround::samples           44                       # Reads before turning the bus around for writes (Count)
system.far_mem_ctrl0.rdPerTurnAround::0            44    100.00%    100.00% # Reads before turning the bus around for writes (Count)
system.far_mem_ctrl0.rdPerTurnAround::total           44                       # Reads before turning the bus around for writes (Count)
system.far_mem_ctrl0.wrPerTurnAround::samples           44                       # Writes before turning the bus around for reads (Count)
system.far_mem_ctrl0.wrPerTurnAround::mean    19.090909                       # Writes before turning the bus around for reads (Count)
system.far_mem_ctrl0.wrPerTurnAround::gmean    19.062068                       # Writes before turning the bus around for reads (Count)
system.far_mem_ctrl0.wrPerTurnAround::stdev     1.074399                       # Writes before turning the bus around for reads (Count)
system.far_mem_ctrl0.wrPerTurnAround::18           16     36.36%     36.36% # Writes before turning the bus around for reads (Count)
system.far_mem_ctrl0.wrPerTurnAround::19           14     31.82%     68.18% # Writes before turning the bus around for reads (Count)
system.far_mem_ctrl0.wrPerTurnAround::20            9     20.45%     88.64% # Writes before turning the bus around for reads (Count)
system.far_mem_ctrl0.wrPerTurnAround::21            4      9.09%     97.73% # Writes before turning the bus around for reads (Count)
system.far_mem_ctrl0.wrPerTurnAround::22            1      2.27%    100.00% # Writes before turning the bus around for reads (Count)
system.far_mem_ctrl0.wrPerTurnAround::total           44                       # Writes before turning the bus around for reads (Count)
system.far_mem_ctrl0.bytesReadWrQ                   0                       # Total number of bytes read from write queue (Byte)
system.far_mem_ctrl0.bytesReadSys                   0                       # Total read bytes from the system interface side (Byte)
system.far_mem_ctrl0.bytesWrittenSys            57728                       # Total written bytes from the system interface side (Byte)
system.far_mem_ctrl0.avgRdBWSys            0.00000000                       # Average system read bandwidth in Byte/s ((Byte/Second))
system.far_mem_ctrl0.avgWrBWSys          576870422.00037980                       # Average system write bandwidth in Byte/s ((Byte/Second))
system.far_mem_ctrl0.totGap                  95238020                       # Total gap between requests (Tick)
system.far_mem_ctrl0.avgGap                 105585.39                       # Average gap between requests ((Tick/Count))
system.far_mem_ctrl0.requestorWriteBytes::writebacks        53760                       # Per-requestor bytes write to memory (Byte)
system.far_mem_ctrl0.requestorWriteRate::writebacks 537218574.811883568764                       # Per-requestor bytes write to memory rate ((Byte/Second))
system.far_mem_ctrl0.requestorWriteAccesses::writebacks          902                       # Per-requestor write serviced memory accesses (Count)
system.far_mem_ctrl0.requestorWriteTotalLat::writebacks   4560234056                       # Per-requestor write total memory access latency (Tick)
system.far_mem_ctrl0.requestorWriteAvgLat::writebacks   5055691.86                       # Per-requestor write average memory access latency ((Tick/Count))
system.far_mem_ctrl0.dram.bytesWritten::writebacks        57728                       # Number of bytes written to this memory (Byte)
system.far_mem_ctrl0.dram.bytesWritten::total        57728                       # Number of bytes written to this memory (Byte)
system.far_mem_ctrl0.dram.numWrites::writebacks          902                       # Number of write requests responded to by this memory (Count)
system.far_mem_ctrl0.dram.numWrites::total          902                       # Number of write requests responded to by this memory (Count)
system.far_mem_ctrl0.dram.bwWrite::writebacks    576870422                       # Write bandwidth from this memory ((Byte/Second))
system.far_mem_ctrl0.dram.bwWrite::total    576870422                       # Write bandwidth from this memory ((Byte/Second))
system.far_mem_ctrl0.dram.bwTotal::writebacks    576870422                       # Total bandwidth to/from this memory ((Byte/Second))
system.far_mem_ctrl0.dram.bwTotal::total    576870422                       # Total bandwidth to/from this memory ((Byte/Second))
system.far_mem_ctrl0.dram.readBursts                0                       # Number of NVM read bursts (Count)
system.far_mem_ctrl0.dram.writeBursts             840                       # Number of NVM write bursts (Count)
system.far_mem_ctrl0.dram.perBankRdBursts::0            0                       # Per bank write bursts (Count)
system.far_mem_ctrl0.dram.perBankRdBursts::1            0                       # Per bank write bursts (Count)
system.far_mem_ctrl0.dram.perBankRdBursts::2            0                       # Per bank write bursts (Count)
system.far_mem_ctrl0.dram.perBankRdBursts::3            0                       # Per bank write bursts (Count)
system.far_mem_ctrl0.dram.perBankRdBursts::4            0                       # Per bank write bursts (Count)
system.far_mem_ctrl0.dram.perBankRdBursts::5            0                       # Per bank write bursts (Count)
system.far_mem_ctrl0.dram.perBankRdBursts::6            0                       # Per bank write bursts (Count)
system.far_mem_ctrl0.dram.perBankRdBursts::7            0                       # Per bank write bursts (Count)
system.far_mem_ctrl0.dram.perBankRdBursts::8            0                       # Per bank write bursts (Count)
system.far_mem_ctrl0.dram.perBankRdBursts::9            0                       # Per bank write bursts (Count)
system.far_mem_ctrl0.dram.perBankRdBursts::10            0                       # Per bank write bursts (Count)
system.far_mem_ctrl0.dram.perBankRdBursts::11            0                       # Per bank write bursts (Count)
system.far_mem_ctrl0.dram.perBankRdBursts::12            0                       # Per bank write bursts (Count)
system.far_mem_ctrl0.dram.perBankRdBursts::13            0                       # Per bank write bursts (Count)
system.far_mem_ctrl0.dram.perBankRdBursts::14            0                       # Per bank write bursts (Count)
system.far_mem_ctrl0.dram.perBankRdBursts::15            0                       # Per bank write bursts (Count)
system.far_mem_ctrl0.dram.perBankWrBursts::0           52                       # Per bank write bursts (Count)
system.far_mem_ctrl0.dram.perBankWrBursts::1           56                       # Per bank write bursts (Count)
system.far_mem_ctrl0.dram.perBankWrBursts::2           55                       # Per bank write bursts (Count)
system.far_mem_ctrl0.dram.perBankWrBursts::3           51                       # Per bank write bursts (Count)
system.far_mem_ctrl0.dram.perBankWrBursts::4           56                       # Per bank write bursts (Count)
system.far_mem_ctrl0.dram.perBankWrBursts::5           52                       # Per bank write bursts (Count)
system.far_mem_ctrl0.dram.perBankWrBursts::6           35                       # Per bank write bursts (Count)
system.far_mem_ctrl0.dram.perBankWrBursts::7           53                       # Per bank write bursts (Count)
system.far_mem_ctrl0.dram.perBankWrBursts::8           54                       # Per bank write bursts (Count)
system.far_mem_ctrl0.dram.perBankWrBursts::9           57                       # Per bank write bursts (Count)
system.far_mem_ctrl0.dram.perBankWrBursts::10           48                       # Per bank write bursts (Count)
system.far_mem_ctrl0.dram.perBankWrBursts::11           61                       # Per bank write bursts (Count)
system.far_mem_ctrl0.dram.perBankWrBursts::12           50                       # Per bank write bursts (Count)
system.far_mem_ctrl0.dram.perBankWrBursts::13           64                       # Per bank write bursts (Count)
system.far_mem_ctrl0.dram.perBankWrBursts::14           38                       # Per bank write bursts (Count)
system.far_mem_ctrl0.dram.perBankWrBursts::15           58                       # Per bank write bursts (Count)
system.far_mem_ctrl0.dram.totQLat                   0                       # Total ticks spent queuing (Tick)
system.far_mem_ctrl0.dram.totBusLat                 0                       # Total ticks spent in databus transfers (Tick)
system.far_mem_ctrl0.dram.totMemAccLat              0                       # Total ticks spent from burst creation until serviced by the NVM (Tick)
system.far_mem_ctrl0.dram.avgQLat                 nan                       # Average queueing delay per NVM burst ((Tick/Count))
system.far_mem_ctrl0.dram.avgBusLat               nan                       # Average bus latency per NVM burst ((Tick/Count))
system.far_mem_ctrl0.dram.avgMemAccLat            nan                       # Average memory access latency per NVM burst ((Tick/Count))
system.far_mem_ctrl0.dram.avgRdBW                0.00                       # Average DRAM read bandwidth in MiBytes/s ((Byte/Second))
system.far_mem_ctrl0.dram.avgWrBW              537.22                       # Average DRAM write bandwidth in MiBytes/s ((Byte/Second))
system.far_mem_ctrl0.dram.peakBW             19207.00                       # Theoretical peak bandwidth in MiByte/s ((Byte/Second))
system.far_mem_ctrl0.dram.busUtil                2.80                       # NVM Data bus utilization in percentage (Ratio)
system.far_mem_ctrl0.dram.busUtilRead            0.00                       # NVM Data bus read utilization in percentage (Ratio)
system.far_mem_ctrl0.dram.busUtilWrite           2.80                       # NVM Data bus write utilization in percentage (Ratio)
system.far_mem_ctrl0.dram.pendingWrites::samples          830                       # Number of outstanding writes to NVM (Count)
system.far_mem_ctrl0.dram.pendingWrites::mean    12.465060                       # Number of outstanding writes to NVM (Count)
system.far_mem_ctrl0.dram.pendingWrites::gmean    10.497676                       # Number of outstanding writes to NVM (Count)
system.far_mem_ctrl0.dram.pendingWrites::stdev     6.060460                       # Number of outstanding writes to NVM (Count)
system.far_mem_ctrl0.dram.pendingWrites::1           16      1.93%      1.93% # Number of outstanding writes to NVM (Count)
system.far_mem_ctrl0.dram.pendingWrites::2           22      2.65%      4.58% # Number of outstanding writes to NVM (Count)
system.far_mem_ctrl0.dram.pendingWrites::3           25      3.01%      7.59% # Number of outstanding writes to NVM (Count)
system.far_mem_ctrl0.dram.pendingWrites::4           31      3.73%     11.33% # Number of outstanding writes to NVM (Count)
system.far_mem_ctrl0.dram.pendingWrites::5           36      4.34%     15.66% # Number of outstanding writes to NVM (Count)
system.far_mem_ctrl0.dram.pendingWrites::6           35      4.22%     19.88% # Number of outstanding writes to NVM (Count)
system.far_mem_ctrl0.dram.pendingWrites::7           35      4.22%     24.10% # Number of outstanding writes to NVM (Count)
system.far_mem_ctrl0.dram.pendingWrites::8           36      4.34%     28.43% # Number of outstanding writes to NVM (Count)
system.far_mem_ctrl0.dram.pendingWrites::9           41      4.94%     33.37% # Number of outstanding writes to NVM (Count)
system.far_mem_ctrl0.dram.pendingWrites::10           44      5.30%     38.67% # Number of outstanding writes to NVM (Count)
system.far_mem_ctrl0.dram.pendingWrites::11           42      5.06%     43.73% # Number of outstanding writes to NVM (Count)
system.far_mem_ctrl0.dram.pendingWrites::12           46      5.54%     49.28% # Number of outstanding writes to NVM (Count)
system.far_mem_ctrl0.dram.pendingWrites::13           50      6.02%     55.30% # Number of outstanding writes to NVM (Count)
system.far_mem_ctrl0.dram.pendingWrites::14           48      5.78%     61.08% # Number of outstanding writes to NVM (Count)
system.far_mem_ctrl0.dram.pendingWrites::15           47      5.66%     66.75% # Number of outstanding writes to NVM (Count)
system.far_mem_ctrl0.dram.pendingWrites::16           45      5.42%     72.17% # Number of outstanding writes to NVM (Count)
system.far_mem_ctrl0.dram.pendingWrites::17           44      5.30%     77.47% # Number of outstanding writes to NVM (Count)
system.far_mem_ctrl0.dram.pendingWrites::18           45      5.42%     82.89% # Number of outstanding writes to NVM (Count)
system.far_mem_ctrl0.dram.pendingWrites::19           35      4.22%     87.11% # Number of outstanding writes to NVM (Count)
system.far_mem_ctrl0.dram.pendingWrites::20           30      3.61%     90.72% # Number of outstanding writes to NVM (Count)
system.far_mem_ctrl0.dram.pendingWrites::21           24      2.89%     93.61% # Number of outstanding writes to NVM (Count)
system.far_mem_ctrl0.dram.pendingWrites::22           18      2.17%     95.78% # Number of outstanding writes to NVM (Count)
system.far_mem_ctrl0.dram.pendingWrites::23           11      1.33%     97.11% # Number of outstanding writes to NVM (Count)
system.far_mem_ctrl0.dram.pendingWrites::24            7      0.84%     97.95% # Number of outstanding writes to NVM (Count)
system.far_mem_ctrl0.dram.pendingWrites::25            6      0.72%     98.67% # Number of outstanding writes to NVM (Count)
system.far_mem_ctrl0.dram.pendingWrites::26            4      0.48%     99.16% # Number of outstanding writes to NVM (Count)
system.far_mem_ctrl0.dram.pendingWrites::27            3      0.36%     99.52% # Number of outstanding writes to NVM (Count)
system.far_mem_ctrl0.dram.pendingWrites::28            2      0.24%     99.76% # Number of outstanding writes to NVM (Count)
system.far_mem_ctrl0.dram.pendingWrites::29            1      0.12%     99.88% # Number of outstanding writes to NVM (Count)
system.far_mem_ctrl0.dram.pendingWrites::30            1      0.12%    100.00% # Number of outstanding writes to NVM (Count)
system.far_mem_ctrl0.dram.pendingWrites::total          830                       # Number of outstanding writes to NVM (Count)
system.far_mem_ctrl0.dram.bytesPerBank::samples          840                       # Bytes read within a bank before loading new bank (Byte)
system.far_mem_ctrl0.dram.bytesPerBank::mean           64                       # Bytes read within a bank before loading new bank (Byte)
system.far_mem_ctrl0.dram.bytesPerBank::gmean    64.000000                       # Bytes read within a bank before loading new bank (Byte)
system.far_mem_ctrl0.dram.bytesPerBank::64          840    100.00%    100.00% # Bytes read within a bank before loading new bank (Byte)
system.far_mem_ctrl0.dram.bytesPerBank::total          840                       # Bytes read within a bank before loading new bank (Byte)
system.far_mem_ctrl0.dram.power_state.pwrStateResidencyTicks::UNDEFINED    100071000                       # Cumulative time (in ticks) in various power states (Tick)
system.far_mem_ctrl0.power_state.pwrStateResidencyTicks::UNDEFINED    100071000                       # Cumulative time (in ticks) in various power states (Tick)
system.far_mem_ctrl1.avgPriority_writebacks::samples       921.00                       # Average QoS priority value for accepted requests (Count)
system.far_mem_ctrl1.priorityMinLatency  0.000004902112                       # per QoS priority minimum request to response latency (Second)
system.far_mem_ctrl1.priorityMaxLatency  0.000041794492                       # per QoS priority maximum request to response latency (Second)
system.far_mem_ctrl1.numReadWriteTurnArounds           46                       # Number of turnarounds from READ to WRITE (Count)
system.far_mem_ctrl1.numWriteReadTurnArounds           46                       # Number of turnarounds from WRITE to READ (Count)
system.far_mem_ctrl1.numStayReadState            1718                       # Number of times bus staying in READ state (Count)
system.far_mem_ctrl1.numStayWriteState            822                       # Number of times bus staying in WRITE state (Count)
system.far_mem_ctrl1.readReqs                       0                       # Number of read requests accepted (Count)
system.far_mem_ctrl1.writeReqs                    921                       # Number of write requests accepted (Count)
system.far_mem_ctrl1.readBursts                     0                       # Number of controller read bursts, including those serviced by the write queue (Count)
system.far_mem_ctrl1.writeBursts                  921                       # Number of controller write bursts, including those merged in the write queue (Count)
system.far_mem_ctrl1.servicedByWrQ                  0                       # Number of controller read bursts serviced by the write queue (Count)
system.far_mem_ctrl1.mergedWrBursts                 0                       # Number of controller write bursts merged with an existing one (Count)
system.far_mem_ctrl1.neitherReadNorWriteReqs            0                       # Number of requests that are neither read nor write (Count)
system.far_mem_ctrl1.avgRdQLen                   0.00                       # Average read queue length when enqueuing ((Count/Tick))
system.far_mem_ctrl1.avgWrQLen                  46.74                       # Average write queue length when enqueuing ((Count/Tick))
system.far_mem_ctrl1.numRdRetry                     0                       # Number of times read queue was full causing retry (Count)
system.far_mem_ctrl1.numWrRetry                     0                       # Number of times write queue was full causing retry (Count)
system.far_mem_ctrl1.readPktSize::0                 0                       # Read request sizes (log2) (Count)
system.far_mem_ctrl1.readPktSize::1                 0                       # Read request sizes (log2) (Count)
system.far_mem_ctrl1.readPktSize::2                 0                       # Read request sizes (log2) (Count)
system.far_mem_ctrl1.readPktSize::3                 0                       # Read request sizes (log2) (Count)
system.far_mem_ctrl1.readPktSize::4                 0                       # Read request sizes (log2) (Count)
system.far_mem_ctrl1.readPktSize::5                 0                       # Read request sizes (log2) (Count)
system.far_mem_ctrl1.readPktSize::6                 0                       # Read request sizes (log2) (Count)
system.far_mem_ctrl1.writePktSize::0                0                       # Write request sizes (log2) (Count)
system.far_mem_ctrl1.writePktSize::1                0                       # Write request sizes (log2) (Count)
system.far_mem_ctrl1.writePktSize::2                0                       # Write request sizes (log2) (Count)
system.far_mem_ctrl1.writePktSize::3                0                       # Write request sizes (log2) (Count)
system.far_mem_ctrl1.writePktSize::4                0                       # Write request sizes (log2) (Count)
system.far_mem_ctrl1.writePktSize::5                0                       # Write request sizes (log2) (Count)
system.far_mem_ctrl1.writePktSize::6              921                       # Write request sizes (log2) (Count)
system.far_mem_ctrl1.rdQLenPdf::0                   0                       # What read queue length does an incoming req see (Count)
system.far_mem_ctrl1.rdQLenPdf::1                   0                       # What read queue length does an incoming req see (Count)
system.far_mem_ctrl1.rdQLenPdf::2                   0                       # What read queue length does an incoming req see (Count)
system.far_mem_ctrl1.rdQLenPdf::3                   0                       # What read queue length does an incoming req see (Count)
system.far_mem_ctrl1.rdQLenPdf::4                   0                       # What read queue length does an incoming req see (Count)
system.far_mem_ctrl1.rdQLenPdf::5                   0                       # What read queue length does an incoming req see (Count)
system.far_mem_ctrl1.rdQLenPdf::6                   0                       # What read queue length does an incoming req see (Count)
system.far_mem_ctrl1.rdQLenPdf::7                   0                       # What read queue length does an incoming req see (Count)
system.far_mem_ctrl1.rdQLenPdf::8                   0                       # What read queue length does an incoming req see (Count)
system.far_mem_ctrl1.rdQLenPdf::9                   0                       # What read queue length does an incoming req see (Count)
system.far_mem_ctrl1.rdQLenPdf::10                  0                       # What read queue length does an incoming req see (Count)
system.far_mem_ctrl1.rdQLenPdf::11                  0                       # What read queue length does an incoming req see (Count)
system.far_mem_ctrl1.rdQLenPdf::12                  0                       # What read queue length does an incoming req see (Count)
system.far_mem_ctrl1.rdQLenPdf::13                  0                       # What read queue length does an incoming req see (Count)
system.far_mem_ctrl1.rdQLenPdf::14                  0                       # What read queue length does an incoming req see (Count)
system.far_mem_ctrl1.rdQLenPdf::15                  0                       # What read queue length does an incoming req see (Count)
system.far_mem_ctrl1.rdQLenPdf::16                  0                       # What read queue length does an incoming req see (Count)
system.far_mem_ctrl1.rdQLenPdf::17                  0                       # What read queue length does an incoming req see (Count)
system.far_mem_ctrl1.rdQLenPdf::18                  0                       # What read queue length does an incoming req see (Count)
system.far_mem_ctrl1.rdQLenPdf::19                  0                       # What read queue length does an incoming req see (Count)
system.far_mem_ctrl1.rdQLenPdf::20                  0                       # What read queue length does an incoming req see (Count)
system.far_mem_ctrl1.rdQLenPdf::21                  0                       # What read queue length does an incoming req see (Count)
system.far_mem_ctrl1.rdQLenPdf::22                  0                       # What read queue length does an incoming req see (Count)
system.far_mem_ctrl1.rdQLenPdf::23                  0                       # What read queue length does an incoming req see (Count)
system.far_mem_ctrl1.rdQLenPdf::24                  0                       # What read queue length does an incoming req see (Count)
system.far_mem_ctrl1.rdQLenPdf::25                  0                       # What read queue length does an incoming req see (Count)
system.far_mem_ctrl1.rdQLenPdf::26                  0                       # What read queue length does an incoming req see (Count)
system.far_mem_ctrl1.rdQLenPdf::27                  0                       # What read queue length does an incoming req see (Count)
system.far_mem_ctrl1.rdQLenPdf::28                  0                       # What read queue length does an incoming req see (Count)
system.far_mem_ctrl1.rdQLenPdf::29                  0                       # What read queue length does an incoming req see (Count)
system.far_mem_ctrl1.rdQLenPdf::30                  0                       # What read queue length does an incoming req see (Count)
system.far_mem_ctrl1.rdQLenPdf::31                  0                       # What read queue length does an incoming req see (Count)
system.far_mem_ctrl1.rdQLenPdf::32                  0                       # What read queue length does an incoming req see (Count)
system.far_mem_ctrl1.rdQLenPdf::33                  0                       # What read queue length does an incoming req see (Count)
system.far_mem_ctrl1.rdQLenPdf::34                  0                       # What read queue length does an incoming req see (Count)
system.far_mem_ctrl1.rdQLenPdf::35                  0                       # What read queue length does an incoming req see (Count)
system.far_mem_ctrl1.rdQLenPdf::36                  0                       # What read queue length does an incoming req see (Count)
system.far_mem_ctrl1.rdQLenPdf::37                  0                       # What read queue length does an incoming req see (Count)
system.far_mem_ctrl1.rdQLenPdf::38                  0                       # What read queue length does an incoming req see (Count)
system.far_mem_ctrl1.rdQLenPdf::39                  0                       # What read queue length does an incoming req see (Count)
system.far_mem_ctrl1.rdQLenPdf::40                  0                       # What read queue length does an incoming req see (Count)
system.far_mem_ctrl1.rdQLenPdf::41                  0                       # What read queue length does an incoming req see (Count)
system.far_mem_ctrl1.rdQLenPdf::42                  0                       # What read queue length does an incoming req see (Count)
system.far_mem_ctrl1.rdQLenPdf::43                  0                       # What read queue length does an incoming req see (Count)
system.far_mem_ctrl1.rdQLenPdf::44                  0                       # What read queue length does an incoming req see (Count)
system.far_mem_ctrl1.rdQLenPdf::45                  0                       # What read queue length does an incoming req see (Count)
system.far_mem_ctrl1.rdQLenPdf::46                  0                       # What read queue length does an incoming req see (Count)
system.far_mem_ctrl1.rdQLenPdf::47                  0                       # What read queue length does an incoming req see (Count)
system.far_mem_ctrl1.rdQLenPdf::48                  0                       # What read queue length does an incoming req see (Count)
system.far_mem_ctrl1.rdQLenPdf::49                  0                       # What read queue length does an incoming req see (Count)
system.far_mem_ctrl1.rdQLenPdf::50                  0                       # What read queue length does an incoming req see (Count)
system.far_mem_ctrl1.rdQLenPdf::51                  0                       # What read queue length does an incoming req see (Count)
system.far_mem_ctrl1.rdQLenPdf::52                  0                       # What read queue length does an incoming req see (Count)
system.far_mem_ctrl1.rdQLenPdf::53                  0                       # What read queue length does an incoming req see (Count)
system.far_mem_ctrl1.rdQLenPdf::54                  0                       # What read queue length does an incoming req see (Count)
system.far_mem_ctrl1.rdQLenPdf::55                  0                       # What read queue length does an incoming req see (Count)
system.far_mem_ctrl1.rdQLenPdf::56                  0                       # What read queue length does an incoming req see (Count)
system.far_mem_ctrl1.rdQLenPdf::57                  0                       # What read queue length does an incoming req see (Count)
system.far_mem_ctrl1.rdQLenPdf::58                  0                       # What read queue length does an incoming req see (Count)
system.far_mem_ctrl1.rdQLenPdf::59                  0                       # What read queue length does an incoming req see (Count)
system.far_mem_ctrl1.rdQLenPdf::60                  0                       # What read queue length does an incoming req see (Count)
system.far_mem_ctrl1.rdQLenPdf::61                  0                       # What read queue length does an incoming req see (Count)
system.far_mem_ctrl1.rdQLenPdf::62                  0                       # What read queue length does an incoming req see (Count)
system.far_mem_ctrl1.rdQLenPdf::63                  0                       # What read queue length does an incoming req see (Count)
system.far_mem_ctrl1.rdQLenPdf::64                  0                       # What read queue length does an incoming req see (Count)
system.far_mem_ctrl1.rdQLenPdf::65                  0                       # What read queue length does an incoming req see (Count)
system.far_mem_ctrl1.rdQLenPdf::66                  0                       # What read queue length does an incoming req see (Count)
system.far_mem_ctrl1.rdQLenPdf::67                  0                       # What read queue length does an incoming req see (Count)
system.far_mem_ctrl1.rdQLenPdf::68                  0                       # What read queue length does an incoming req see (Count)
system.far_mem_ctrl1.rdQLenPdf::69                  0                       # What read queue length does an incoming req see (Count)
system.far_mem_ctrl1.rdQLenPdf::70                  0                       # What read queue length does an incoming req see (Count)
system.far_mem_ctrl1.rdQLenPdf::71                  0                       # What read queue length does an incoming req see (Count)
system.far_mem_ctrl1.rdQLenPdf::72                  0                       # What read queue length does an incoming req see (Count)
system.far_mem_ctrl1.rdQLenPdf::73                  0                       # What read queue length does an incoming req see (Count)
system.far_mem_ctrl1.rdQLenPdf::74                  0                       # What read queue length does an incoming req see (Count)
system.far_mem_ctrl1.rdQLenPdf::75                  0                       # What read queue length does an incoming req see (Count)
system.far_mem_ctrl1.rdQLenPdf::76                  0                       # What read queue length does an incoming req see (Count)
system.far_mem_ctrl1.rdQLenPdf::77                  0                       # What read queue length does an incoming req see (Count)
system.far_mem_ctrl1.rdQLenPdf::78                  0                       # What read queue length does an incoming req see (Count)
system.far_mem_ctrl1.rdQLenPdf::79                  0                       # What read queue length does an incoming req see (Count)
system.far_mem_ctrl1.rdQLenPdf::80                  0                       # What read queue length does an incoming req see (Count)
system.far_mem_ctrl1.rdQLenPdf::81                  0                       # What read queue length does an incoming req see (Count)
system.far_mem_ctrl1.rdQLenPdf::82                  0                       # What read queue length does an incoming req see (Count)
system.far_mem_ctrl1.rdQLenPdf::83                  0                       # What read queue length does an incoming req see (Count)
system.far_mem_ctrl1.rdQLenPdf::84                  0                       # What read queue length does an incoming req see (Count)
system.far_mem_ctrl1.rdQLenPdf::85                  0                       # What read queue length does an incoming req see (Count)
system.far_mem_ctrl1.rdQLenPdf::86                  0                       # What read queue length does an incoming req see (Count)
system.far_mem_ctrl1.rdQLenPdf::87                  0                       # What read queue length does an incoming req see (Count)
system.far_mem_ctrl1.rdQLenPdf::88                  0                       # What read queue length does an incoming req see (Count)
system.far_mem_ctrl1.rdQLenPdf::89                  0                       # What read queue length does an incoming req see (Count)
system.far_mem_ctrl1.rdQLenPdf::90                  0                       # What read queue length does an incoming req see (Count)
system.far_mem_ctrl1.rdQLenPdf::91                  0                       # What read queue length does an incoming req see (Count)
system.far_mem_ctrl1.rdQLenPdf::92                  0                       # What read queue length does an incoming req see (Count)
system.far_mem_ctrl1.rdQLenPdf::93                  0                       # What read queue length does an incoming req see (Count)
system.far_mem_ctrl1.rdQLenPdf::94                  0                       # What read queue length does an incoming req see (Count)
system.far_mem_ctrl1.rdQLenPdf::95                  0                       # What read queue length does an incoming req see (Count)
system.far_mem_ctrl1.rdQLenPdf::96                  0                       # What read queue length does an incoming req see (Count)
system.far_mem_ctrl1.rdQLenPdf::97                  0                       # What read queue length does an incoming req see (Count)
system.far_mem_ctrl1.rdQLenPdf::98                  0                       # What read queue length does an incoming req see (Count)
system.far_mem_ctrl1.rdQLenPdf::99                  0                       # What read queue length does an incoming req see (Count)
system.far_mem_ctrl1.rdQLenPdf::100                 0                       # What read queue length does an incoming req see (Count)
system.far_mem_ctrl1.rdQLenPdf::101                 0                       # What read queue length does an incoming req see (Count)
system.far_mem_ctrl1.rdQLenPdf::102                 0                       # What read queue length does an incoming req see (Count)
system.far_mem_ctrl1.rdQLenPdf::103                 0                       # What read queue length does an incoming req see (Count)
system.far_mem_ctrl1.rdQLenPdf::104                 0                       # What read queue length does an incoming req see (Count)
system.far_mem_ctrl1.rdQLenPdf::105                 0                       # What read queue length does an incoming req see (Count)
system.far_mem_ctrl1.rdQLenPdf::106                 0                       # What read queue length does an incoming req see (Count)
system.far_mem_ctrl1.rdQLenPdf::107                 0                       # What read queue length does an incoming req see (Count)
system.far_mem_ctrl1.rdQLenPdf::108                 0                       # What read queue length does an incoming req see (Count)
system.far_mem_ctrl1.rdQLenPdf::109                 0                       # What read queue length does an incoming req see (Count)
system.far_mem_ctrl1.rdQLenPdf::110                 0                       # What read queue length does an incoming req see (Count)
system.far_mem_ctrl1.rdQLenPdf::111                 0                       # What read queue length does an incoming req see (Count)
system.far_mem_ctrl1.rdQLenPdf::112                 0                       # What read queue length does an incoming req see (Count)
system.far_mem_ctrl1.rdQLenPdf::113                 0                       # What read queue length does an incoming req see (Count)
system.far_mem_ctrl1.rdQLenPdf::114                 0                       # What read queue length does an incoming req see (Count)
system.far_mem_ctrl1.rdQLenPdf::115                 0                       # What read queue length does an incoming req see (Count)
system.far_mem_ctrl1.rdQLenPdf::116                 0                       # What read queue length does an incoming req see (Count)
system.far_mem_ctrl1.rdQLenPdf::117                 0                       # What read queue length does an incoming req see (Count)
system.far_mem_ctrl1.rdQLenPdf::118                 0                       # What read queue length does an incoming req see (Count)
system.far_mem_ctrl1.rdQLenPdf::119                 0                       # What read queue length does an incoming req see (Count)
system.far_mem_ctrl1.rdQLenPdf::120                 0                       # What read queue length does an incoming req see (Count)
system.far_mem_ctrl1.rdQLenPdf::121                 0                       # What read queue length does an incoming req see (Count)
system.far_mem_ctrl1.rdQLenPdf::122                 0                       # What read queue length does an incoming req see (Count)
system.far_mem_ctrl1.rdQLenPdf::123                 0                       # What read queue length does an incoming req see (Count)
system.far_mem_ctrl1.rdQLenPdf::124                 0                       # What read queue length does an incoming req see (Count)
system.far_mem_ctrl1.rdQLenPdf::125                 0                       # What read queue length does an incoming req see (Count)
system.far_mem_ctrl1.rdQLenPdf::126                 0                       # What read queue length does an incoming req see (Count)
system.far_mem_ctrl1.rdQLenPdf::127                 0                       # What read queue length does an incoming req see (Count)
system.far_mem_ctrl1.wrQLenPdf::0                   1                       # What write queue length does an incoming req see (Count)
system.far_mem_ctrl1.wrQLenPdf::1                   1                       # What write queue length does an incoming req see (Count)
system.far_mem_ctrl1.wrQLenPdf::2                   1                       # What write queue length does an incoming req see (Count)
system.far_mem_ctrl1.wrQLenPdf::3                   1                       # What write queue length does an incoming req see (Count)
system.far_mem_ctrl1.wrQLenPdf::4                   1                       # What write queue length does an incoming req see (Count)
system.far_mem_ctrl1.wrQLenPdf::5                   1                       # What write queue length does an incoming req see (Count)
system.far_mem_ctrl1.wrQLenPdf::6                   1                       # What write queue length does an incoming req see (Count)
system.far_mem_ctrl1.wrQLenPdf::7                   1                       # What write queue length does an incoming req see (Count)
system.far_mem_ctrl1.wrQLenPdf::8                   1                       # What write queue length does an incoming req see (Count)
system.far_mem_ctrl1.wrQLenPdf::9                   1                       # What write queue length does an incoming req see (Count)
system.far_mem_ctrl1.wrQLenPdf::10                  1                       # What write queue length does an incoming req see (Count)
system.far_mem_ctrl1.wrQLenPdf::11                  1                       # What write queue length does an incoming req see (Count)
system.far_mem_ctrl1.wrQLenPdf::12                  1                       # What write queue length does an incoming req see (Count)
system.far_mem_ctrl1.wrQLenPdf::13                  1                       # What write queue length does an incoming req see (Count)
system.far_mem_ctrl1.wrQLenPdf::14                  1                       # What write queue length does an incoming req see (Count)
system.far_mem_ctrl1.wrQLenPdf::15                  1                       # What write queue length does an incoming req see (Count)
system.far_mem_ctrl1.wrQLenPdf::16                  1                       # What write queue length does an incoming req see (Count)
system.far_mem_ctrl1.wrQLenPdf::17                  1                       # What write queue length does an incoming req see (Count)
system.far_mem_ctrl1.wrQLenPdf::18                  1                       # What write queue length does an incoming req see (Count)
system.far_mem_ctrl1.wrQLenPdf::19                  1                       # What write queue length does an incoming req see (Count)
system.far_mem_ctrl1.wrQLenPdf::20                  1                       # What write queue length does an incoming req see (Count)
system.far_mem_ctrl1.wrQLenPdf::21                  1                       # What write queue length does an incoming req see (Count)
system.far_mem_ctrl1.wrQLenPdf::22                  1                       # What write queue length does an incoming req see (Count)
system.far_mem_ctrl1.wrQLenPdf::23                  1                       # What write queue length does an incoming req see (Count)
system.far_mem_ctrl1.wrQLenPdf::24                  1                       # What write queue length does an incoming req see (Count)
system.far_mem_ctrl1.wrQLenPdf::25                  1                       # What write queue length does an incoming req see (Count)
system.far_mem_ctrl1.wrQLenPdf::26                  1                       # What write queue length does an incoming req see (Count)
system.far_mem_ctrl1.wrQLenPdf::27                  1                       # What write queue length does an incoming req see (Count)
[...]
system.membus.pktCount_system.generators01.port::system.mem_ctrl0.port          712                       # Packet count per connected requestor and responder (Count)
system.membus.pktCount_system.generators01.port::system.mem_ctrl1.port          742                       # Packet count per connected requestor and responder (Count)
system.membus.pktCount_system.generators01.port::total         1454                       # Packet count per connected requestor and responder (Count)
system.membus.pktCount_system.generators02.port::system.mem_ctrl0.port          720                       # Packet count per connected requestor and responder (Count)
system.membus.pktCount_system.generators02.port::system.mem_ctrl1.port          826                       # Packet count per connected requestor and responder (Count)
system.membus.pktCount_system.generators02.port::total         1546                       # Packet count per connected requestor and responder (Count)
system.membus.pktCount_system.generators03.port::system.mem_ctrl0.port          788                       # Packet count per connected requestor and responder (Count)
system.membus.pktCount_system.generators03.port::system.mem_ctrl1.port          716                       # Packet count per connected requestor and responder (Count)
system.membus.pktCount_system.generators03.port::total         1504                       # Packet count per connected requestor and responder (Count)
system.membus.pktCount_system.generators04.port::system.mem_ctrl0.port          832                       # Packet count per connected requestor and responder (Count)
system.membus.pktCount_system.generators04.port::system.mem_ctrl1.port          716                       # Packet count per connected requestor and responder (Count)
system.membus.pktCount_system.generators04.port::total         1548                       # Packet count per connected requestor and responder (Count)
system.membus.pktCount_system.generators05.port::system.mem_ctrl0.port          738                       # Packet count per connected requestor and responder (Count)
system.membus.pktCount_system.generators05.port::system.mem_ctrl1.port          800                       # Packet count per connected requestor and responder (Count)
system.membus.pktCount_system.generators05.port::total         1538                       # Packet count per connected requestor and responder (Count)
system.membus.pktCount_system.generators06.port::system.mem_ctrl0.port          736                       # Packet count per connected requestor and responder (Count)
system.membus.pktCount_system.generators06.port::system.mem_ctrl1.port          785                       # Packet count per connected requestor and responder (Count)
system.membus.pktCount_system.generators06.port::total         1521                       # Packet count per connected requestor and responder (Count)
system.membus.pktCount_system.generators07.port::system.mem_ctrl0.port          742                       # Packet count per connected requestor and responder (Count)
system.membus.pktCount_system.generators07.port::system.mem_ctrl1.port          660                       # Packet count per connected requestor and responder (Count)
system.membus.pktCount_system.generators07.port::total         1402                       # Packet count per connected requestor and responder (Count)
system.membus.pktCount_system.generators08.port::system.mem_ctrl0.port          684                       # Packet count per connected requestor and responder (Count)
system.membus.pktCount_system.generators08.port::system.mem_ctrl1.port          766                       # Packet count per connected requestor and responder (Count)
system.membus.pktCount_system.generators08.port::total         1450                       # Packet count per connected requestor and responder (Count)
system.membus.pktCount_system.generators09.port::system.mem_ctrl0.port          690                       # Packet count per connected requestor and responder (Count)
system.membus.pktCount_system.generators09.port::system.mem_ctrl1.port          738                       # Packet count per connected requestor and responder (Count)
system.membus.pktCount_system.generators09.port::total         1428                       # Packet count per connected requestor and responder (Count)
system.membus.pktCount_system.generators10.port::system.mem_ctrl0.port          824                       # Packet count per connected requestor and responder (Count)
system.membus.pktCount_system.generators10.port::system.mem_ctrl1.port          720                       # Packet count per connected requestor and responder (Count)
system.membus.pktCount_system.generators10.port::total         1544                       # Packet count per connected requestor and responder (Count)
system.membus.pktCount_system.generators11.port::system.mem_ctrl0.port          698                       # Packet count per connected requestor and responder (Count)
system.membus.pktCount_system.generators11.port::system.mem_ctrl1.port          818                       # Packet count per connected requestor and responder (Count)
system.membus.pktCount_system.generators11.port::total         1516                       # Packet count per connected requestor and responder (Count)
system.membus.pktCount_system.generators12.port::system.mem_ctrl0.port          808                       # Packet count per connected requestor and responder (Count)
system.membus.pktCount_system.generators12.port::system.mem_ctrl1.port          706                       # Packet count per connected requestor and responder (Count)
system.membus.pktCount_system.generators12.port::total         1514                       # Packet count per connected requestor and responder (Count)
system.membus.pktCount_system.generators13.port::system.mem_ctrl0.port          826                       # Packet count per connected requestor and responder (Count)
system.membus.pktCount_system.generators13.port::system.mem_ctrl1.port          698                       # Packet count per connected requestor and responder (Count)
system.membus.pktCount_system.generators13.port::total         1524                       # Packet count per connected requestor and responder (Count)
system.membus.pktCount_system.generators14.port::system.mem_ctrl0.port          742                       # Packet count per connected requestor and responder (Count)
system.membus.pktCount_system.generators14.port::system.mem_ctrl1.port          776                       # Packet count per connected requestor and responder (Count)
system.membus.pktCount_system.generators14.port::total         1518                       # Packet count per connected requestor and responder (Count)
system.membus.pktCount_system.generators15.port::system.mem_ctrl0.port          704                       # Packet count per connected requestor and responder (Count)
system.membus.pktCount_system.generators15.port::system.mem_ctrl1.port          707                       # Packet count per connected requestor and responder (Count)
system.membus.pktCount_system.generators15.port::total         1411                       # Packet count per connected requestor and responder (Count)
system.membus.pktCount::total                   23900                       # Packet count per connected requestor and responder (Count)
system.membus.pktSize_system.generators00.port::system.mem_ctrl0.port        22848                       # Cumulative packet size per connected requestor and responder (Byte)
system.membus.pktSize_system.generators00.port::system.mem_ctrl1.port        24576                       # Cumulative packet size per connected requestor and responder (Byte)
system.membus.pktSize_system.generators00.port::total        47424                       # Cumulative packet size per connected requestor and responder (Byte)
system.membus.pktSize_system.generators01.port::system.mem_ctrl0.port        22784                       # Cumulative packet size per connected requestor and responder (Byte)
system.membus.pktSize_system.generators01.port::system.mem_ctrl1.port        23744                       # Cumulative packet size per connected requestor and responder (Byte)
system.membus.pktSize_system.generators01.port::total        46528                       # Cumulative packet size per connected requestor and responder (Byte)
system.membus.pktSize_system.generators02.port::system.mem_ctrl0.port        23040                       # Cumulative packet size per connected requestor and responder (Byte)
system.membus.pktSize_system.generators02.port::system.mem_ctrl1.port        26432                       # Cumulative packet size per connected requestor and responder (Byte)
system.membus.pktSize_system.generators02.port::total        49472                       # Cumulative packet size per connected requestor and responder (Byte)
system.membus.pktSize_system.generators03.port::system.mem_ctrl0.port        25216                       # Cumulative packet size per connected requestor and responder (Byte)
system.membus.pktSize_system.generators03.port::system.mem_ctrl1.port        22912                       # Cumulative packet size per connected requestor and responder (Byte)
system.membus.pktSize_system.generators03.port::total        48128                       # Cumulative packet size per connected requestor and responder (Byte)
system.membus.pktSize_system.generators04.port::system.mem_ctrl0.port        26624                       # Cumulative packet size per connected requestor and responder (Byte)
system.membus.pktSize_system.generators04.port::system.mem_ctrl1.port        22912                       # Cumulative packet size per connected requestor and responder (Byte)
system.membus.pktSize_system.generators04.port::total        49536                       # Cumulative packet size per connected requestor and responder (Byte)
system.membus.pktSize_system.generators05.port::system.mem_ctrl0.port        23616                       # Cumulative packet size per connected requestor and responder (Byte)
system.membus.pktSize_system.generators05.port::system.mem_ctrl1.port        25600                       # Cumulative packet size per connected requestor and responder (Byte)
system.membus.pktSize_system.generators05.port::total        49216                       # Cumulative packet size per connected requestor and responder (Byte)
system.membus.pktSize_system.generators06.port::system.mem_ctrl0.port        23552                       # Cumulative packet size per connected requestor and responder (Byte)
system.membus.pktSize_system.generators06.port::system.mem_ctrl1.port        25152                       # Cumulative packet size per connected requestor and responder (Byte)
system.membus.pktSize_system.generators06.port::total        48704                       # Cumulative packet size per connected requestor and responder (Byte)
system.membus.pktSize_system.generators07.port::system.mem_ctrl0.port        23744                       # Cumulative packet size per connected requestor and responder (Byte)
system.membus.pktSize_system.generators07.port::system.mem_ctrl1.port        21120                       # Cumulative packet size per connected requestor and responder (Byte)
system.membus.pktSize_system.generators07.port::total        44864                       # Cumulative packet size per connected requestor and responder (Byte)
system.membus.pktSize_system.generators08.port::system.mem_ctrl0.port        21888                       # Cumulative packet size per connected requestor and responder (Byte)
system.membus.pktSize_system.generators08.port::system.mem_ctrl1.port        24512                       # Cumulative packet size per connected requestor and responder (Byte)
system.membus.pktSize_system.generators08.port::total        46400                       # Cumulative packet size per connected requestor and responder (Byte)
system.membus.pktSize_system.generators09.port::system.mem_ctrl0.port        22080                       # Cumulative packet size per connected requestor and responder (Byte)
system.membus.pktSize_system.generators09.port::system.mem_ctrl1.port        23616                       # Cumulative packet size per connected requestor and responder (Byte)
system.membus.pktSize_system.generators09.port::total        45696                       # Cumulative packet size per connected requestor and responder (Byte)
system.membus.pktSize_system.generators10.port::system.mem_ctrl0.port        26368                       # Cumulative packet size per connected requestor and responder (Byte)
system.membus.pktSize_system.generators10.port::system.mem_ctrl1.port        23040                       # Cumulative packet size per connected requestor and responder (Byte)
system.membus.pktSize_system.generators10.port::total        49408                       # Cumulative packet size per connected requestor and responder (Byte)
system.membus.pktSize_system.generators11.port::system.mem_ctrl0.port        22336                       # Cumulative packet size per connected requestor and responder (Byte)
system.membus.pktSize_system.generators11.port::system.mem_ctrl1.port        26176                       # Cumulative packet size per connected requestor and responder (Byte)
system.membus.pktSize_system.generators11.port::total        48512                       # Cumulative packet size per connected requestor and responder (Byte)
system.membus.pktSize_system.generators12.port::system.mem_ctrl0.port        25856                       # Cumulative packet size per connected requestor and responder (Byte)
system.membus.pktSize_system.generators12.port::system.mem_ctrl1.port        22592                       # Cumulative packet size per connected requestor and responder (Byte)
system.membus.pktSize_system.generators12.port::total        48448                       # Cumulative packet size per connected requestor and responder (Byte)
system.membus.pktSize_system.generators13.port::system.mem_ctrl0.port        26432                       # Cumulative packet size per connected requestor and responder (Byte)
system.membus.pktSize_system.generators13.port::system.mem_ctrl1.port        22336                       # Cumulative packet size per connected requestor and responder (Byte)
system.membus.pktSize_system.generators13.port::total        48768                       # Cumulative packet size per connected requestor and responder (Byte)
system.membus.pktSize_system.generators14.port::system.mem_ctrl0.port        23744                       # Cumulative packet size per connected requestor and responder (Byte)
system.membus.pktSize_system.generators14.port::system.mem_ctrl1.port        24832                       # Cumulative packet size per connected requestor and responder (Byte)
system.membus.pktSize_system.generators14.port::total        48576                       # Cumulative packet size per connected requestor and responder (Byte)
system.membus.pktSize_system.generators15.port::system.mem_ctrl0.port        22528                       # Cumulative packet size per connected requestor and responder (Byte)
system.membus.pktSize_system.generators15.port::system.mem_ctrl1.port        22656                       # Cumulative packet size per connected requestor and responder (Byte)
system.membus.pktSize_system.generators15.port::total        45184                       # Cumulative packet size per connected requestor and responder (Byte)
system.membus.pktSize::total                   764864                       # Cumulative packet size per connected requestor and responder (Byte)
system.membus.power_state.pwrStateResidencyTicks::UNDEFINED    100071000                       # Cumulative time (in ticks) in various power states (Tick)
system.membus.reqLayer0.occupancy             3592385                       # Layer occupancy (ticks) (Tick)
system.membus.reqLayer0.utilization               0.0                       # Layer utilization (Ratio)
system.membus.reqLayer1.occupancy             3628230                       # Layer occupancy (ticks) (Tick)
system.membus.reqLayer1.utilization               0.0                       # Layer utilization (Ratio)
system.membus.respLayer0.occupancy             148920                       # Layer occupancy (ticks) (Tick)
system.membus.respLayer0.utilization              0.0                       # Layer utilization (Ratio)
system.membus.respLayer1.occupancy             145758                       # Layer occupancy (ticks) (Tick)
system.membus.respLayer1.utilization              0.0                       # Layer utilization (Ratio)
system.membus.respLayer10.occupancy            155260                       # Layer occupancy (ticks) (Tick)
system.membus.respLayer10.utilization             0.0                       # Layer utilization (Ratio)
system.membus.respLayer11.occupancy            152879                       # Layer occupancy (ticks) (Tick)
system.membus.respLayer11.utilization             0.0                       # Layer utilization (Ratio)
system.membus.respLayer12.occupancy            152281                       # Layer occupancy (ticks) (Tick)
system.membus.respLayer12.utilization             0.0                       # Layer utilization (Ratio)
system.membus.respLayer13.occupancy            152800                       # Layer occupancy (ticks) (Tick)
system.membus.respLayer13.utilization             0.0                       # Layer utilization (Ratio)
system.membus.respLayer14.occupancy            152439                       # Layer occupancy (ticks) (Tick)
system.membus.respLayer14.utilization             0.0                       # Layer utilization (Ratio)
system.membus.respLayer15.occupancy            142060                       # Layer occupancy (ticks) (Tick)
system.membus.respLayer15.utilization             0.0                       # Layer utilization (Ratio)
system.membus.respLayer2.occupancy             155419                       # Layer occupancy (ticks) (Tick)
system.membus.respLayer2.utilization              0.0                       # Layer utilization (Ratio)
system.membus.respLayer3.occupancy             151259                       # Layer occupancy (ticks) (Tick)
system.membus.respLayer3.utilization              0.0                       # Layer utilization (Ratio)
system.membus.respLayer4.occupancy             155339                       # Layer occupancy (ticks) (Tick)
system.membus.respLayer4.utilization              0.0                       # Layer utilization (Ratio)
system.membus.respLayer5.occupancy             154740                       # Layer occupancy (ticks) (Tick)
system.membus.respLayer5.utilization              0.0                       # Layer utilization (Ratio)
system.membus.respLayer6.occupancy             152838                       # Layer occupancy (ticks) (Tick)
system.membus.respLayer6.utilization              0.0                       # Layer utilization (Ratio)
system.membus.respLayer7.occupancy             140719                       # Layer occupancy (ticks) (Tick)
system.membus.respLayer7.utilization              0.0                       # Layer utilization (Ratio)
system.membus.respLayer8.occupancy             145700                       # Layer occupancy (ticks) (Tick)
system.membus.respLayer8.utilization              0.0                       # Layer utilization (Ratio)
system.membus.respLayer9.occupancy             143540                       # Layer occupancy (ticks) (Tick)
system.membus.respLayer9.utilization              0.0                       # Layer utilization (Ratio)
system.workload.inst.arm                            0                       # number of arm instructions executed (Count)
system.workload.inst.quiesce                        0                       # number of quiesce instructions executed (Count)

---------- End Simulation Statistics   ----------
