
---------- Begin Simulation Statistics ----------
simSeconds                                   0.000010                       # Number of seconds simulated (Second)
simTicks                                     10003400                       # Number of ticks simulated (Tick)
finalTick                                    10003400                       # Number of ticks from beginning of simulation (restored from checkpoints and never reset) (Tick)
simFreq                                  1000000000000                       # The number of ticks per simulated second ((Tick/Second))
hostSeconds                                      0.01                       # Real time elapsed on the host (Second)
hostTickRate                               1553260272                       # The number of ticks simulated per host second (ticks/s) ((Tick/Second))
hostMemory                                    3315872                       # Number of bytes of host memory used (Byte)
system.clk_domain.clock                           200                       # Clock period in ticks (Tick)
system.clk_domain.voltage_domain.voltage            1                       # Voltage in Volts (Volt)
system.far_mem_ctrl.avgPriority_writebacks::samples        46.00                       # Average QoS priority value for accepted requests (Count)
system.far_mem_ctrl.priorityMinLatency   0.000000017492                       # per QoS priority minimum request to response latency (Second)
system.far_mem_ctrl.priorityMaxLatency   0.000000317492                       # per QoS priority maximum request to response latency (Second)
system.far_mem_ctrl.numReadWriteTurnArounds            0                       # Number of turnarounds from READ to WRITE (Count)
system.far_mem_ctrl.numWriteReadTurnArounds            0                       # Number of turnarounds from WRITE to READ (Count)
system.far_mem_ctrl.numStayReadState              138                       # Number of times bus staying in READ state (Count)
system.far_mem_ctrl.numStayWriteState               0                       # Number of times bus staying in WRITE state (Count)
system.far_mem_ctrl.readReqs                       46                       # Number of read requests accepted (Count)
system.far_mem_ctrl.writeReqs                       0                       # Number of write requests accepted (Count)
system.far_mem_ctrl.readBursts                     46                       # Number of controller read bursts, including those serviced by the write queue (Count)
system.far_mem_ctrl.writeBursts                     0                       # Number of controller write bursts, including those merged in the write queue (Count)
system.far_mem_ctrl.servicedByWrQ                   0                       # Number of controller read bursts serviced by the write queue (Count)
system.far_mem_ctrl.mergedWrBursts                  0                       # Number of controller write bursts merged with an existing one (Count)
system.far_mem_ctrl.neitherReadNorWriteReqs            0                       # Number of requests that are neither read nor write (Count)
system.far_mem_ctrl.avgRdQLen                    1.64                       # Average read queue length when enqueuing ((Count/Tick))
system.far_mem_ctrl.avgWrQLen                    0.00                       # Average write queue length when enqueuing ((Count/Tick))
system.far_mem_ctrl.numRdRetry                      0                       # Number of times read queue was full causing retry (Count)
system.far_mem_ctrl.numWrRetry                      0                       # Number of times write queue was full causing retry (Count)
system.far_mem_ctrl.readPktSize::0                  0                       # Read request sizes (log2) (Count)
system.far_mem_ctrl.readPktSize::1                  0                       # Read request sizes (log2) (Count)
system.far_mem_ctrl.readPktSize::2                  0                       # Read request sizes (log2) (Count)
system.far_mem_ctrl.readPktSize::3                  0                       # Read request sizes (log2) (Count)
system.far_mem_ctrl.readPktSize::4                  0                       # Read request sizes (log2) (Count)
system.far_mem_ctrl.readPktSize::5                  0                       # Read request sizes (log2) (Count)
system.far_mem_ctrl.readPktSize::6                 46                       # Read request sizes (log2) (Count)
system.far_mem_ctrl.writePktSize::0                 0                       # Write request sizes (log2) (Count)
system.far_mem_ctrl.writePktSize::1                 0                       # Write request sizes (log2) (Count)
system.far_mem_ctrl.writePktSize::2                 0                       # Write request sizes (log2) (Count)
system.far_mem_ctrl.writePktSize::3                 0                       # Write request sizes (log2) (Count)
system.far_mem_ctrl.writePktSize::4                 0                       # Write request sizes (log2) (Count)
system.far_mem_ctrl.writePktSize::5                 0                       # Write request sizes (log2) (Count)
system.far_mem_ctrl.writePktSize::6                 0                       # Write request sizes (log2) (Count)
system.far_mem_ctrl.rdQLenPdf::0                   28                       # What read queue length does an incoming req see (Count)
system.far_mem_ctrl.rdQLenPdf::1                   18                       # What read queue length does an incoming req see (Count)
system.far_mem_ctrl.rdQLenPdf::2                    0                       # What read queue length does an incoming req see (Count)
system.far_mem_ctrl.rdQLenPdf::3                    0                       # What read queue length does an incoming req see (Count)
system.far_mem_ctrl.rdQLenPdf::4                    0                       # What read queue length does an incoming req see (Count)
system.far_mem_ctrl.rdQLenPdf::5                    0                       # What read queue length does an incoming req see (Count)
system.far_mem_ctrl.rdQLenPdf::6                    0                       # What read queue length does an incoming req see (Count)
system.far_mem_ctrl.rdQLenPdf::7                    0                       # What read queue length does an incoming req see (Count)
system.far_mem_ctrl.rdQLenPdf::8                    0                       # What read queue length does an incoming req see (Count)
system.far_mem_ctrl.rdQLenPdf::9                    0                       # What read queue length does an incoming req see (Count)
system.far_mem_ctrl.rdQLenPdf::10                   0                       # What read queue length does an incoming req see (Count)
system.far_mem_ctrl.rdQLenPdf::11                   0                       # What read queue length does an incoming req see (Count)
system.far_mem_ctrl.rdQLenPdf::12                   0                       # What read queue length does an incoming req see (Count)
system.far_mem_ctrl.rdQLenPdf::13                   0                       # What read queue length does an incoming req see (Count)
system.far_mem_ctrl.rdQLenPdf::14                   0                       # What read queue length does an incoming req see (Count)
system.far_mem_ctrl.rdQLenPdf::15                   0                       # What read queue length does an incoming req see (Count)
system.far_mem_ctrl.rdQLenPdf::16                   0                       # What read queue length does an incoming req see (Count)
system.far_mem_ctrl.rdQLenPdf::17                   0                       # What read queue length does an incoming req see (Count)
system.far_mem_ctrl.rdQLenPdf::18                   0                       # What read queue length does an incoming req see (Count)
system.far_mem_ctrl.rdQLenPdf::19                   0                       # What read queue length does an incoming req see (Count)
system.far_mem_ctrl.rdQLenPdf::20                   0                       # What read queue length does an incoming req see (Count)
system.far_mem_ctrl.rdQLenPdf::21                   0                       # What read queue length does an incoming req see (Count)
system.far_mem_ctrl.rdQLenPdf::22                   0                       # What read queue length does an incoming req see (Count)
system.far_mem_ctrl.rdQLenPdf::23                   0                       # What read queue length does an incoming req see (Count)
system.far_mem_ctrl.rdQLenPdf::24                   0                       # What read queue length does an incoming req see (Count)
system.far_mem_ctrl.rdQLenPdf::25                   0                       # What read queue length does an incoming req see (Count)
system.far_mem_ctrl.rdQLenPdf::26                   0                       # What read queue length does an incoming req see (Count)
system.far_mem_ctrl.rdQLenPdf::27                   0                       # What read queue length does an incoming req see (Count)
system.far_mem_ctrl.rdQLenPdf::28                   0                       # What read queue length does an incoming req see (Count)
system.far_mem_ctrl.rdQLenPdf::29                   0                       # What read queue length does an incoming req see (Count)
system.far_mem_ctrl.rdQLenPdf::30                   0                       # What read queue length does an incoming req see (Count)
system.far_mem_ctrl.rdQLenPdf::31                   0                       # What read queue length does an incoming req see (Count)
system.far_mem_ctrl.rdQLenPdf::32                   0                       # What read queue length does an incoming req see (Count)
system.far_mem_ctrl.rdQLenPdf::33                   0                       # What read queue length does an incoming req see (Count)
system.far_mem_ctrl.rdQLenPdf::34                   0                       # What read queue length does an incoming req see (Count)
system.far_mem_ctrl.rdQLenPdf::35                   0                       # What read queue length does an incoming req see (Count)
system.far_mem_ctrl.rdQLenPdf::36                   0                       # What read queue length does an incoming req see (Count)
system.far_mem_ctrl.rdQLenPdf::37                   0                       # What read queue length does an incoming req see (Count)
system.far_mem_ctrl.rdQLenPdf::38                   0                       # What read queue length does an incoming req see (Count)
system.far_mem_ctrl.rdQLenPdf::39                   0                       # What read queue length does an incoming req see (Count)
system.far_mem_ctrl.rdQLenPdf::40                   0                       # What read queue length does an incoming req see (Count)
system.far_mem_ctrl.rdQLenPdf::41                   0                       # What read queue length does an incoming req see (Count)
system.far_mem_ctrl.rdQLenPdf::42                   0                       # What read queue length does an incoming req see (Count)
system.far_mem_ctrl.rdQLenPdf::43                   0                       # What read queue length does an incoming req see (Count)
system.far_mem_ctrl.rdQLenPdf::44                   0                       # What read queue length does an incoming req see (Count)
system.far_mem_ctrl.rdQLenPdf::45                   0                       # What read queue length does an incoming req see (Count)
system.far_mem_ctrl.rdQLenPdf::46                   0                       # What read queue length does an incoming req see (Count)
system.far_mem_ctrl.rdQLenPdf::47                   0                       # What read queue length does an incoming req see (Count)
system.far_mem_ctrl.rdQLenPdf::48                   0                       # What read queue length does an incoming req see (Count)
system.far_mem_ctrl.rdQLenPdf::49                   0                       # What read queue length does an incoming req see (Count)
system.far_mem_ctrl.rdQLenPdf::50                   0                       # What read queue length does an incoming req see (Count)
system.far_mem_ctrl.rdQLenPdf::51                   0                       # What read queue length does an incoming req see (Count)
system.far_mem_ctrl.rdQLenPdf::52                   0                       # What read queue length does an incoming req see (Count)
system.far_mem_ctrl.rdQLenPdf::53                   0                       # What read queue length does an incoming req see (Count)
system.far_mem_ctrl.rdQLenPdf::54                   0                       # What read queue length does an incoming req see (Count)
system.far_mem_ctrl.rdQLenPdf::55                   0                       # What read queue length does an incoming req see (Count)
system.far_mem_ctrl.rdQLenPdf::56                   0                       # What read queue length does an incoming req see (Count)
system.far_mem_ctrl.rdQLenPdf::57                   0                       # What read queue length does an incoming req see (Count)
system.far_mem_ctrl.rdQLenPdf::58                   0                       # What read queue length does an incoming req see (Count)
system.far_mem_ctrl.rdQLenPdf::59                   0                       # What read queue length does an incoming req see (Count)
system.far_mem_ctrl.rdQLenPdf::60                   0                       # What read queue length does an incoming req see (Count)
system.far_mem_ctrl.rdQLenPdf::61                   0                       # What read queue length does an incoming req see (Count)
system.far_mem_ctrl.rdQLenPdf::62                   0                       # What read queue length does an incoming req see (Count)
system.far_mem_ctrl.rdQLenPdf::63                   0                       # What read queue length does an incoming req see (Count)
system.far_mem_ctrl.rdQLenPdf::64                   0                       # What read queue length does an incoming req see (Count)
system.far_mem_ctrl.rdQLenPdf::65                   0                       # What read queue length does an incoming req see (Count)
system.far_mem_ctrl.rdQLenPdf::66                   0                       # What read queue length does an incoming req see (Count)
system.far_mem_ctrl.rdQLenPdf::67                   0                       # What read queue length does an incoming req see (Count)
system.far_mem_ctrl.rdQLenPdf::68                   0                       # What read queue length does an incoming req see (Count)
system.far_mem_ctrl.rdQLenPdf::69                   0                       # What read queue length does an incoming req see (Count)
system.far_mem_ctrl.rdQLenPdf::70                   0                       # What read queue length does an incoming req see (Count)
system.far_mem_ctrl.rdQLenPdf::71                   0                       # What read queue length does an incoming req see (Count)
system.far_mem_ctrl.rdQLenPdf::72                   0                       # What read queue length does an incoming req see (Count)
system.far_mem_ctrl.rdQLenPdf::73                   0                       # What read queue length does an incoming req see (Count)
system.far_mem_ctrl.rdQLenPdf::74                   0                       # What read queue length does an incoming req see (Count)
system.far_mem_ctrl.rdQLenPdf::75                   0                       # What read queue length does an incoming req see (Count)
system.far_mem_ctrl.rdQLenPdf::76                   0                       # What read queue length does an incoming req see (Count)
system.far_mem_ctrl.rdQLenPdf::77                   0                       # What read queue length does an incoming req see (Count)
system.far_mem_ctrl.rdQLenPdf::78                   0                       # What read queue length does an incoming req see (Count)
system.far_mem_ctrl.rdQLenPdf::79                   0                       # What read queue length does an incoming req see (Count)
system.far_mem_ctrl.rdQLenPdf::80                   0                       # What read queue length does an incoming req see (Count)
system.far_mem_ctrl.rdQLenPdf::81                   0                       # What read queue length does an incoming req see (Count)
system.far_mem_ctrl.rdQLenPdf::82                   0                       # What read queue length does an incoming req see (Count)
system.far_mem_ctrl.rdQLenPdf::83                   0                       # What read queue length does an incoming req see (Count)
system.far_mem_ctrl.rdQLenPdf::84                   0                       # What read queue length does an incoming req see (Count)
system.far_mem_ctrl.rdQLenPdf::85                   0                       # What read queue length does an incoming req see (Count)
system.far_mem_ctrl.rdQLenPdf::86                   0                       # What read queue length does an incoming req see (Count)
system.far_mem_ctrl.rdQLenPdf::87                   0                       # What read queue length does an incoming req see (Count)
system.far_mem_ctrl.rdQLenPdf::88                   0                       # What read queue length does an incoming req see (Count)
system.far_mem_ctrl.rdQLenPdf::89                   0                       # What read queue length does an incoming req see (Count)
system.far_mem_ctrl.rdQLenPdf::90                   0                       # What read queue length does an incoming req see (Count)
system.far_mem_ctrl.rdQLenPdf::91                   0                       # What read queue length does an incoming req see (Count)
system.far_mem_ctrl.rdQLenPdf::92                   0                       # What read queue length does an incoming req see (Count)
system.far_mem_ctrl.rdQLenPdf::93                   0                       # What read queue length does an incoming req see (Count)
system.far_mem_ctrl.rdQLenPdf::94                   0                       # What read queue length does an incoming req see (Count)
system.far_mem_ctrl.rdQLenPdf::95                   0                       # What read queue length does an incoming req see (Count)
system.far_mem_ctrl.rdQLenPdf::96                   0                       # What read queue length does an incoming req see (Count)
system.far_mem_ctrl.rdQLenPdf::97                   0                       # What read queue length does an incoming req see (Count)
system.far_mem_ctrl.rdQLenPdf::98                   0                       # What read queue length does an incoming req see (Count)
system.far_mem_ctrl.rdQLenPdf::99                   0                       # What read queue length does an incoming req see (Count)
system.far_mem_ctrl.rdQLenPdf::100                  0                       # What read queue length does an incoming req see (Count)
system.far_mem_ctrl.rdQLenPdf::101                  0                       # What read queue length does an incoming req see (Count)
system.far_mem_ctrl.rdQLenPdf::102                  0                       # What read queue length does an incoming req see (Count)
system.far_mem_ctrl.rdQLenPdf::103                  0                       # What read queue length does an incoming req see (Count)
system.far_mem_ctrl.rdQLenPdf::104                  0                       # What read queue length does an incoming req see (Count)
system.far_mem_ctrl.rdQLenPdf::105                  0                       # What read queue length does an incoming req see (Count)
system.far_mem_ctrl.rdQLenPdf::106                  0                       # What read queue length does an incoming req see (Count)
system.far_mem_ctrl.rdQLenPdf::107                  0                       # What read queue length does an incoming req see (Count)
system.far_mem_ctrl.rdQLenPdf::108                  0                       # What read queue length does an incoming req see (Count)
system.far_mem_ctrl.rdQLenPdf::109                  0                       # What read queue length does an incoming req see (Count)
system.far_mem_ctrl.rdQLenPdf::110                  0                       # What read queue length does an incoming req see (Count)
system.far_mem_ctrl.rdQLenPdf::111                  0                       # What read queue length does an incoming req see (Count)
system.far_mem_ctrl.rdQLenPdf::112                  0                       # What read queue length does an incoming req see (Count)
system.far_mem_ctrl.rdQLenPdf::113                  0                       # What read queue length does an incoming req see (Count)
system.far_mem_ctrl.rdQLenPdf::114                  0                       # What read queue length does an incoming req see (Count)
system.far_mem_ctrl.rdQLenPdf::115                  0                       # What read queue length does an incoming req see (Count)
system.far_mem_ctrl.rdQLenPdf::116                  0                       # What read queue length does an incoming req see (Count)
system.far_mem_ctrl.rdQLenPdf::117                  0                       # What read queue length does an incoming req see (Count)
system.far_mem_ctrl.rdQLenPdf::118                  0                       # What read queue length does an incoming req see (Count)
system.far_mem_ctrl.rdQLenPdf::119                  0                       # What read queue length does an incoming req see (Count)
system.far_mem_ctrl.rdQLenPdf::120                  0                       # What read queue length does an incoming req see (Count)
system.far_mem_ctrl.rdQLenPdf::121                  0                       # What read queue length does an incoming req see (Count)
system.far_mem_ctrl.rdQLenPdf::122                  0                       # What read queue length does an incoming req see (Count)
system.far_mem_ctrl.rdQLenPdf::123                  0                       # What read queue length does an incoming req see (Count)
system.far_mem_ctrl.rdQLenPdf::124                  0                       # What read queue length does an incoming req see (Count)
system.far_mem_ctrl.rdQLenPdf::125                  0                       # What read queue length does an incoming req see (Count)
system.far_mem_ctrl.rdQLenPdf::126                  0                       # What read queue length does an incoming req see (Count)
system.far_mem_ctrl.rdQLenPdf::127                  0                       # What read queue length does an incoming req see (Count)
system.far_mem_ctrl.wrQLenPdf::0                    0                       # What write queue length does an incoming req see (Count)
system.far_mem_ctrl.wrQLenPdf::1                    0                       # What write queue length does an incoming req see (Count)
system.far_mem_ctrl.wrQLenPdf::2                    0                       # What write queue length does an incoming req see (Count)
system.far_mem_ctrl.wrQLenPdf::3                    0                       # What write queue length does an incoming req see (Count)
system.far_mem_ctrl.wrQLenPdf::4                    0                       # What write queue length does an incoming req see (Count)
system.far_mem_ctrl.wrQLenPdf::5                    0                       # What write queue length does an incoming req see (Count)
system.far_mem_ctrl.wrQLenPdf::6                    0                       # What write queue length does an incoming req see (Count)
system.far_mem_ctrl.wrQLenPdf::7                    0                       # What write queue length does an incoming req see (Count)
system.far_mem_ctrl.wrQLenPdf::8                    0                       # What write queue length does an incoming req see (Count)
system.far_mem_ctrl.wrQLenPdf::9                    0                       # What write queue length does an incoming req see (Count)
system.far_mem_ctrl.wrQLenPdf::10                   0                       # What write queue length does an incoming req see (Count)
system.far_mem_ctrl.wrQLenPdf::11                   0                       # What write queue length does an incoming req see (Count)
system.far_mem_ctrl.wrQLenPdf::12                   0                       # What write queue length does an incoming req see (Count)
system.far_mem_ctrl.wrQLenPdf::13                   0                       # What write queue length does an incoming req see (Count)
system.far_mem_ctrl.wrQLenPdf::14                   0                       # What write queue length does an incoming req see (Count)
system.far_mem_ctrl.wrQLenPdf::15                   0                       # What write queue length does an incoming req see (Count)
system.far_mem_ctrl.wrQLenPdf::16                   0                       # What write queue length does an incoming req see (Count)
system.far_mem_ctrl.wrQLenPdf::17                   0                       # What write queue length does an incoming req see (Count)
system.far_mem_ctrl.wrQLenPdf::18                   0                       # What write queue length does an incoming req see (Count)
system.far_mem_ctrl.wrQLenPdf::19                   0                       # What write queue length does an incoming req see (Count)
system.far_mem_ctrl.wrQLenPdf::20                   0                       # What write queue length does an incoming req see (Count)
system.far_mem_ctrl.wrQLenPdf::21                   0                       # What write queue length does an incoming req see (Count)
system.far_mem_ctrl.wrQLenPdf::22                   0                       # What write queue length does an incoming req see (Count)
system.far_mem_ctrl.wrQLenPdf::23                   0                       # What write queue length does an incoming req see (Count)
system.far_mem_ctrl.wrQLenPdf::24                   0                       # What write queue length does an incoming req see (Count)
system.far_mem_ctrl.wrQLenPdf::25                   0                       # What write queue length does an incoming req see (Count)
system.far_mem_ctrl.wrQLenPdf::26                   0                       # What write queue length does an incoming req see (Count)
system.far_mem_ctrl.wrQLenPdf::27                   0                       # What write queue length does an incoming req see (Count)
system.far_mem_ctrl.wrQLenPdf::28                   0                       # What write queue length does an incoming req see (Count)
system.far_mem_ctrl.wrQLenPdf::29                   0                       # What write queue length does an incoming req see (Count)
system.far_mem_ctrl.wrQLenPdf::30                   0                       # What write queue length does an incoming req see (Count)
system.far_mem_ctrl.wrQLenPdf::31                   0                       # What write queue length does an incoming req see (Count)
system.far_mem_ctrl.wrQLenPdf::32                   0                       # What write queue length does an incoming req see (Count)
system.far_mem_ctrl.wrQLenPdf::33                   0                       # What write queue length does an incoming req see (Count)
system.far_mem_ctrl.wrQLenPdf::34                   0                       # What write queue length does an incoming req see (Count)
system.far_mem_ctrl.wrQLenPdf::35                   0                       # What write queue length does an incoming req see (Count)
system.far_mem_ctrl.wrQLenPdf::36                   0                       # What write queue length does an incoming req see (Count)
system.far_mem_ctrl.wrQLenPdf::37                   0                       # What write queue length does an incoming req see (Count)
system.far_mem_ctrl.wrQLenPdf::38                   0                       # What write queue length does an incoming req see (Count)
system.far_mem_ctrl.wrQLenPdf::39                   0                       # What write queue length does an incoming req see (Count)
system.far_mem_ctrl.wrQLenPdf::40                   0                       # What write queue length does an incoming req see (Count)
system.far_mem_ctrl.wrQLenPdf::41                   0                       # What write queue length does an incoming req see (Count)
system.far_mem_ctrl.wrQLenPdf::42                   0                       # What write queue length does an incoming req see (Count)
system.far_mem_ctrl.wrQLenPdf::43                   0                       # What write queue length does an incoming req see (Count)
system.far_mem_ctrl.wrQLenPdf::44                   0                       # What write queue length does an incoming req see (Count)
system.far_mem_ctrl.wrQLenPdf::45                   0                       # What write queue length does an incoming req see (Count)
system.far_mem_ctrl.wrQLenPdf::46                   0                       # What write queue length does an incoming req see (Count)
system.far_mem_ctrl.wrQLenPdf::47                   0                       # What write queue length does an incoming req see (Count)
system.far_mem_ctrl.wrQLenPdf::48                   0                       # What write queue length does an incoming req see (Count)
system.far_mem_ctrl.wrQLenPdf::49                   0                       # What write queue length does an incoming req see (Count)
system.far_mem_ctrl.wrQLenPdf::50                   0                       # What write queue length does an incoming req see (Count)
system.far_mem_ctrl.wrQLenPdf::51                   0                       # What write queue length does an incoming req see (Count)
system.far_mem_ctrl.wrQLenPdf::52                   0                       # What write queue length does an incoming req see (Count)
system.far_mem_ctrl.wrQLenPdf::53                   0                       # What write queue length does an incoming req see (Count)
system.far_mem_ctrl.wrQLenPdf::54                   0                       # What write queue length does an incoming req see (Count)
system.far_mem_ctrl.wrQLenPdf::55                   0                       # What write queue length does an incoming req see (Count)
system.far_mem_ctrl.wrQLenPdf::56                   0                       # What write queue length does an incoming req see (Count)
system.far_mem_ctrl.wrQLenPdf::57                   0                       # What write queue length does an incoming req see (Count)
system.far_mem_ctrl.wrQLenPdf::58                   0                       # What write queue length does an incoming req see (Count)
system.far_mem_ctrl.wrQLenPdf::59                   0                       # What write queue length does an incoming req see (Count)
system.far_mem_ctrl.wrQLenPdf::60                   0                       # What write queue length does an incoming req see (Count)
system.far_mem_ctrl.wrQLenPdf::61                   0                       # What write queue length does an incoming req see (Count)
system.far_mem_ctrl.wrQLenPdf::62                   0                       # What write queue length does an incoming req see (Count)
system.far_mem_ctrl.wrQLenPdf::63                   0                       # What write queue length does an incoming req see (Count)
system.far_mem_ctrl.wrQLenPdf::64                   0                       # What write queue length does an incoming req see (Count)
system.far_mem_ctrl.wrQLenPdf::65                   0                       # What write queue length does an incoming req see (Count)
system.far_mem_ctrl.wrQLenPdf::66                   0                       # What write queue length does an incoming req see (Count)
system.far_mem_ctrl.wrQLenPdf::67                   0                       # What write queue length does an incoming req see (Count)
system.far_mem_ctrl.wrQLenPdf::68                   0                       # What write queue length does an incoming req see (Count)
system.far_mem_ctrl.wrQLenPdf::69                   0                       # What write queue length does an incoming req see (Count)
system.far_mem_ctrl.wrQLenPdf::70                   0                       # What write queue length does an incoming req see (Count)
system.far_mem_ctrl.wrQLenPdf::71                   0                       # What write queue length does an incoming req see (Count)
system.far_mem_ctrl.wrQLenPdf::72                   0                       # What write queue length does an incoming req see (Count)
system.far_mem_ctrl.wrQLenPdf::73                   0                       # What write queue length does an incoming req see (Count)
system.far_mem_ctrl.wrQLenPdf::74                   0                       # What write queue length does an incoming req see (Count)
system.far_mem_ctrl.wrQLenPdf::75                   0                       # What write queue length does an incoming req see (Count)
system.far_mem_ctrl.wrQLenPdf::76                   0                       # What write queue length does an incoming req see (Count)
system.far_mem_ctrl.wrQLenPdf::77                   0                       # What write queue length does an incoming req see (Count)
system.far_mem_ctrl.wrQLenPdf::78                   0                       # What write queue length does an incoming req see (Count)
system.far_mem_ctrl.wrQLenPdf::79                   0                       # What write queue length does an incoming req see (Count)
system.far_mem_ctrl.wrQLenPdf::80                   0                       # What write queue length does an incoming req see (Count)
system.far_mem_ctrl.wrQLenPdf::81                   0                       # What write queue length does an incoming req see (Count)
system.far_mem_ctrl.wrQLenPdf::82                   0                       # What write queue length does an incoming req see (Count)
system.far_mem_ctrl.wrQLenPdf::83                   0                       # What write queue length does an incoming req see (Count)
system.far_mem_ctrl.wrQLenPdf::84                   0                       # What write queue length does an incoming req see (Count)
system.far_mem_ctrl.wrQLenPdf::85                   0                       # What write queue length does an incoming req see (Count)
system.far_mem_ctrl.wrQLenPdf::86                   0                       # What write queue length does an incoming req see (Count)
system.far_mem_ctrl.wrQLenPdf::87                   0                       # What write queue length does an incoming req see (Count)
system.far_mem_ctrl.wrQLenPdf::88                   0                       # What write queue length does an incoming req see (Count)
system.far_mem_ctrl.wrQLenPdf::89                   0                       # What write queue length does an incoming req see (Count)
system.far_mem_ctrl.wrQLenPdf::90                   0                       # What write queue length does an incoming req see (Count)
system.far_mem_ctrl.wrQLenPdf::91                   0                       # What write queue length does an incoming req see (Count)
system.far_mem_ctrl.wrQLenPdf::92                   0                       # What write queue length does an incoming req see (Count)
system.far_mem_ctrl.wrQLenPdf::93                   0                       # What write queue length does an incoming req see (Count)
system.far_mem_ctrl.wrQLenPdf::94                   0                       # What write queue length does an incoming req see (Count)
system.far_mem_ctrl.wrQLenPdf::95                   0                       # What write queue length does an incoming req see (Count)
system.far_mem_ctrl.wrQLenPdf::96                   0                       # What write queue length does an incoming req see (Count)
system.far_mem_ctrl.wrQLenPdf::97                   0                       # What write queue length does an incoming req see (Count)
system.far_mem_ctrl.wrQLenPdf::98                   0                       # What write queue length does an incoming req see (Count)
system.far_mem_ctrl.wrQLenPdf::99                   0                       # What write queue length does an incoming req see (Count)
system.far_mem_ctrl.wrQLenPdf::100                  0                       # What write queue length does an incoming req see (Count)
system.far_mem_ctrl.wrQLenPdf::101                  0                       # What write queue length does an incoming req see (Count)
system.far_mem_ctrl.wrQLenPdf::102                  0                       # What write queue length does an incoming req see (Count)
system.far_mem_ctrl.wrQLenPdf::103                  0                       # What write queue length does an incoming req see (Count)
system.far_mem_ctrl.wrQLenPdf::104                  0                       # What write queue length does an incoming req see (Count)
system.far_mem_ctrl.wrQLenPdf::105                  0                       # What write queue length does an incoming req see (Count)
system.far_mem_ctrl.wrQLenPdf::106                  0                       # What write queue length does an incoming req see (Count)
system.far_mem_ctrl.wrQLenPdf::107                  0                       # What write queue length does an incoming req see (Count)
system.far_mem_ctrl.wrQLenPdf::108                  0                       # What write queue length does an incoming req see (Count)
system.far_mem_ctrl.wrQLenPdf::109                  0                       # What write queue length does an incoming req see (Count)
system.far_mem_ctrl.wrQLenPdf::110                  0                       # What write queue length does an incoming req see (Count)
system.far_mem_ctrl.wrQLenPdf::111                  0                       # What write queue length does an incoming req see (Count)
system.far_mem_ctrl.wrQLenPdf::112                  0                       # What write queue length does an incoming req see (Count)
system.far_mem_ctrl.wrQLenPdf::113                  0                       # What write queue length does an incoming req see (Count)
system.far_mem_ctrl.wrQLenPdf::114                  0                       # What write queue length does an incoming req see (Count)
system.far_mem_ctrl.wrQLenPdf::115                  0                       # What write queue length does an incoming req see (Count)
system.far_mem_ctrl.wrQLenPdf::116                  0                       # What write queue length does an incoming req see (Count)
system.far_mem_ctrl.wrQLenPdf::117                  0                       # What write queue length does an incoming req see (Count)
system.far_mem_ctrl.wrQLenPdf::118                  0                       # What write queue length does an incoming req see (Count)
system.far_mem_ctrl.wrQLenPdf::119                  0                       # What write queue length does an incoming req see (Count)
system.far_mem_ctrl.wrQLenPdf::120                  0                       # What write queue length does an incoming req see (Count)
system.far_mem_ctrl.wrQLenPdf::121                  0                       # What write queue length does an incoming req see (Count)
system.far_mem_ctrl.wrQLenPdf::122                  0                       # What write queue length does an incoming req see (Count)
system.far_mem_ctrl.wrQLenPdf::123                  0                       # What write queue length does an incoming req see (Count)
system.far_mem_ctrl.wrQLenPdf::124                  0                       # What write queue length does an incoming req see (Count)
system.far_mem_ctrl.wrQLenPdf::125                  0                       # What write queue length does an incoming req see (Count)
system.far_mem_ctrl.wrQLenPdf::126                  0                       # What write queue length does an incoming req see (Count)
system.far_mem_ctrl.wrQLenPdf::127                  0                       # What write queue length does an incoming req see (Count)
system.far_mem_ctrl.bytesReadWrQ                    0                       # Total number of bytes read from write queue (Byte)
system.far_mem_ctrl.bytesReadSys                 2944                       # Total read bytes from the system interface side (Byte)
system.far_mem_ctrl.bytesWrittenSys                 0                       # Total written bytes from the system interface side (Byte)
system.far_mem_ctrl.avgRdBWSys           294299938.02107286                       # Average system read bandwidth in Byte/s ((Byte/Second))
system.far_mem_ctrl.avgWrBWSys             0.00000000                       # Average system write bandwidth in Byte/s ((Byte/Second))
system.far_mem_ctrl.totGap                    9625200                       # Total gap between requests (Tick)
system.far_mem_ctrl.avgGap                  209243.48                       # Average gap between requests ((Tick/Count))
system.far_mem_ctrl.requestorReadBytes::writebacks         2944                       # Per-requestor bytes read from memory (Byte)
system.far_mem_ctrl.requestorReadRate::writebacks 294299938.021072864532                       # Per-requestor bytes read from memory rate ((Byte/Second))
system.far_mem_ctrl.requestorReadAccesses::writebacks           46                       # Per-requestor read serviced memory accesses (Count)
system.far_mem_ctrl.requestorReadTotalLat::writebacks      2898352                       # Per-requestor read total memory access latency (Tick)
system.far_mem_ctrl.requestorReadAvgLat::writebacks     63007.65                       # Per-requestor read average memory access latency ((Tick/Count))
system.far_mem_ctrl.dram.bytesRead::writebacks         2944                       # Number of bytes read from this memory (Byte)
system.far_mem_ctrl.dram.bytesRead::total         2944                       # Number of bytes read from this memory (Byte)
system.far_mem_ctrl.dram.numReads::writebacks           46                       # Number of read requests responded to by this memory (Count)
system.far_mem_ctrl.dram.numReads::total           46                       # Number of read requests responded to by this memory (Count)
system.far_mem_ctrl.dram.bwRead::writebacks    294299938                       # Total read bandwidth from this memory ((Byte/Second))
system.far_mem_ctrl.dram.bwRead::total      294299938                       # Total read bandwidth from this memory ((Byte/Second))
system.far_mem_ctrl.dram.bwTotal::writebacks    294299938                       # Total bandwidth to/from this memory ((Byte/Second))
system.far_mem_ctrl.dram.bwTotal::total     294299938                       # Total bandwidth to/from this memory ((Byte/Second))
system.far_mem_ctrl.dram.readBursts                46                       # Number of NVM read bursts (Count)
system.far_mem_ctrl.dram.writeBursts                0                       # Number of NVM write bursts (Count)
system.far_mem_ctrl.dram.perBankRdBursts::0            4                       # Per bank write bursts (Count)
system.far_mem_ctrl.dram.perBankRdBursts::1            4                       # Per bank write bursts (Count)
system.far_mem_ctrl.dram.perBankRdBursts::2            4                       # Per bank write bursts (Count)
system.far_mem_ctrl.dram.perBankRdBursts::3            4                       # Per bank write bursts (Count)
system.far_mem_ctrl.dram.perBankRdBursts::4            4                       # Per bank write bursts (Count)
system.far_mem_ctrl.dram.perBankRdBursts::5            4                       # Per bank write bursts (Count)
system.far_mem_ctrl.dram.perBankRdBursts::6            4                       # Per bank write bursts (Count)
system.far_mem_ctrl.dram.perBankRdBursts::7            4                       # Per bank write bursts (Count)
system.far_mem_ctrl.dram.perBankRdBursts::8            4                       # Per bank write bursts (Count)
system.far_mem_ctrl.dram.perBankRdBursts::9            4                       # Per bank write bursts (Count)
system.far_mem_ctrl.dram.perBankRdBursts::10            4                       # Per bank write bursts (Count)
system.far_mem_ctrl.dram.perBankRdBursts::11            2                       # Per bank write bursts (Count)
system.far_mem_ctrl.dram.perBankRdBursts::12            0                       # Per bank write bursts (Count)
system.far_mem_ctrl.dram.perBankRdBursts::13            0                       # Per bank write bursts (Count)
system.far_mem_ctrl.dram.perBankRdBursts::14            0                       # Per bank write bursts (Count)
system.far_mem_ctrl.dram.perBankRdBursts::15            0                       # Per bank write bursts (Count)
system.far_mem_ctrl.dram.perBankWrBursts::0            0                       # Per bank write bursts (Count)
system.far_mem_ctrl.dram.perBankWrBursts::1            0                       # Per bank write bursts (Count)
system.far_mem_ctrl.dram.perBankWrBursts::2            0                       # Per bank write bursts (Count)
system.far_mem_ctrl.dram.perBankWrBursts::3            0                       # Per bank write bursts (Count)
system.far_mem_ctrl.dram.perBankWrBursts::4            0                       # Per bank write bursts (Count)
system.far_mem_ctrl.dram.perBankWrBursts::5            0                       # Per bank write bursts (Count)
system.far_mem_ctrl.dram.perBankWrBursts::6            0                       # Per bank write bursts (Count)
system.far_mem_ctrl.dram.perBankWrBursts::7            0                       # Per bank write bursts (Count)
system.far_mem_ctrl.dram.perBankWrBursts::8            0                       # Per bank write bursts (Count)
system.far_mem_ctrl.dram.perBankWrBursts::9            0                       # Per bank write bursts (Count)
system.far_mem_ctrl.dram.perBankWrBursts::10            0                       # Per bank write bursts (Count)
system.far_mem_ctrl.dram.perBankWrBursts::11            0                       # Per bank write bursts (Count)
system.far_mem_ctrl.dram.perBankWrBursts::12            0                       # Per bank write bursts (Count)
system.far_mem_ctrl.dram.perBankWrBursts::13            0                       # Per bank write bursts (Count)
system.far_mem_ctrl.dram.perBankWrBursts::14            0                       # Per bank write bursts (Count)
system.far_mem_ctrl.dram.perBankWrBursts::15            0                       # Per bank write bursts (Count)
system.far_mem_ctrl.dram.totQLat              2093720                       # Total ticks spent queuing (Tick)
system.far_mem_ctrl.dram.totBusLat             153272                       # Total ticks spent in databus transfers (Tick)
system.far_mem_ctrl.dram.totMemAccLat         2898352                       # Total ticks spent from burst creation until serviced by the NVM (Tick)
system.far_mem_ctrl.dram.avgQLat             45515.65                       # Average queueing delay per NVM burst ((Tick/Count))
system.far_mem_ctrl.dram.avgBusLat            3332.00                       # Average bus latency per NVM burst ((Tick/Count))
system.far_mem_ctrl.dram.avgMemAccLat        63007.65                       # Average memory access latency per NVM burst ((Tick/Count))
system.far_mem_ctrl.dram.avgRdBW               294.30                       # Average DRAM read bandwidth in MiBytes/s ((Byte/Second))
system.far_mem_ctrl.dram.avgWrBW                 0.00                       # Average DRAM write bandwidth in MiBytes/s ((Byte/Second))
system.far_mem_ctrl.dram.peakBW              19207.00                       # Theoretical peak bandwidth in MiByte/s ((Byte/Second))
system.far_mem_ctrl.dram.busUtil                 1.53                       # NVM Data bus utilization in percentage (Ratio)
system.far_mem_ctrl.dram.busUtilRead             1.53                       # NVM Data bus read utilization in percentage (Ratio)
system.far_mem_ctrl.dram.busUtilWrite            0.00                       # NVM Data bus write utilization in percentage (Ratio)
system.far_mem_ctrl.dram.pendingReads::samples           46                       # Reads issued to NVM for which data has not been transferred (Count)
system.far_mem_ctrl.dram.pendingReads::mean     0.195652                       # Reads issued to NVM for which data has not been transferred (Count)
system.far_mem_ctrl.dram.pendingReads::stdev     0.401085                       # Reads issued to NVM for which data has not been transferred (Count)
system.far_mem_ctrl.dram.pendingReads::0           37     80.43%     80.43% # Reads issued to NVM for which data has not been transferred (Count)
system.far_mem_ctrl.dram.pendingReads::1            9     19.57%    100.00% # Reads issued to NVM for which data has not been transferred (Count)
system.far_mem_ctrl.dram.pendingReads::total           46                       # Reads issued to NVM for which data has not been transferred (Count)
system.far_mem_ctrl.dram.bytesPerBank::samples           12                       # Bytes read within a bank before loading new bank (Byte)
system.far_mem_ctrl.dram.bytesPerBank::mean           64                       # Bytes read within a bank before loading new bank (Byte)
system.far_mem_ctrl.dram.bytesPerBank::gmean    64.000000                       # Bytes read within a bank before loading new bank (Byte)
system.far_mem_ctrl.dram.bytesPerBank::64           12    100.00%    100.00% # Bytes read within a bank before loading new bank (Byte)
system.far_mem_ctrl.dram.bytesPerBank::total           12                       # Bytes read within a bank before loading new bank (Byte)
system.far_mem_ctrl.dram.power_state.pwrStateResidencyTicks::UNDEFINED     10003400                       # Cumulative time (in ticks) in various power states (Tick)
system.far_mem_ctrl.power_state.pwrStateResidencyTicks::UNDEFINED     10003400                       # Cumulative time (in ticks) in various power states (Tick)
system.generators0.numSuppressed                    0                       # Number of suppressed packets to non-memory space (Count)
system.generators0.numPackets                      47                       # Number of packets generated (Count)
system.generators0.numRetries                      53                       # Number of retries (Count)
system.generators0.retryTicks                 9626120                       # Time spent waiting due to back-pressure (Tick)
system.generators0.bytesRead                     2944                       # Number of bytes read (Byte)
system.generators0.bytesWritten                     0                       # Number of bytes written (Byte)
system.generators0.totalReadLatency          18154680                       # Total latency of read requests (Tick)
system.generators0.totalWriteLatency                0                       # Total latency of write requests (Tick)
system.generators0.totalReads                      46                       # Total num of reads (Count)
system.generators0.totalWrites                      0                       # Total num of writes (Count)
system.generators0.avgReadLatency        394666.956522                       # Avg latency of read requests ((Tick/Count))
system.generators0.avgWriteLatency                nan                       # Avg latency of write requests ((Tick/Count))
system.generators0.readBW                294299938.021073                       # Read bandwidth ((Byte/Second))
system.generators0.writeBW                          0                       # Write bandwidth ((Byte/Second))
system.generators0.power_state.pwrStateResidencyTicks::UNDEFINED     10003400                       # Cumulative time (in ticks) in various power states (Tick)
system.generators1.numSuppressed                    0                       # Number of suppressed packets to non-memory space (Count)
system.generators1.numPackets                      47                       # Number of packets generated (Count)
system.generators1.numRetries                      46                       # Number of retries (Count)
system.generators1.retryTicks                 9626080                       # Time spent waiting due to back-pressure (Tick)
system.generators1.bytesRead                     2944                       # Number of bytes read (Byte)
system.generators1.bytesWritten                     0                       # Number of bytes written (Byte)
system.generators1.totalReadLatency          17775680                       # Total latency of read requests (Tick)
system.generators1.totalWriteLatency                0                       # Total latency of write requests (Tick)
system.generators1.totalReads                      46                       # Total num of reads (Count)
system.generators1.totalWrites                      0                       # Total num of writes (Count)
system.generators1.avgReadLatency        386427.826087                       # Avg latency of read requests ((Tick/Count))
system.generators1.avgWriteLatency                nan                       # Avg latency of write requests ((Tick/Count))
system.generators1.readBW                294299938.021073                       # Read bandwidth ((Byte/Second))
system.generators1.writeBW                          0                       # Write bandwidth ((Byte/Second))
system.generators1.power_state.pwrStateResidencyTicks::UNDEFINED     10003400                       # Cumulative time (in ticks) in various power states (Tick)
system.generators10.numSuppressed                   0                       # Number of suppressed packets to non-memory space (Count)
system.generators10.numPackets                     47                       # Number of packets generated (Count)
system.generators10.numRetries                     48                       # Number of retries (Count)
system.generators10.retryTicks                9817440                       # Time spent waiting due to back-pressure (Tick)
system.generators10.bytesRead                    2944                       # Number of bytes read (Byte)
system.generators10.bytesWritten                    0                       # Number of bytes written (Byte)
system.generators10.totalReadLatency         17415640                       # Total latency of read requests (Tick)
system.generators10.totalWriteLatency               0                       # Total latency of write requests (Tick)
system.generators10.totalReads                     46                       # Total num of reads (Count)
system.generators10.totalWrites                     0                       # Total num of writes (Count)
system.generators10.avgReadLatency       378600.869565                       # Avg latency of read requests ((Tick/Count))
system.generators10.avgWriteLatency               nan                       # Avg latency of write requests ((Tick/Count))
system.generators10.readBW               294299938.021073                       # Read bandwidth ((Byte/Second))
system.generators10.writeBW                         0                       # Write bandwidth ((Byte/Second))
system.generators10.power_state.pwrStateResidencyTicks::UNDEFINED     10003400                       # Cumulative time (in ticks) in various power states (Tick)
system.generators11.numSuppressed                   0                       # Number of suppressed packets to non-memory space (Count)
system.generators11.numPackets                     47                       # Number of packets generated (Count)
system.generators11.numRetries                     48                       # Number of retries (Count)
system.generators11.retryTicks                9817440                       # Time spent waiting due to back-pressure (Tick)
system.generators11.bytesRead                    2944                       # Number of bytes read (Byte)
system.generators11.bytesWritten                    0                       # Number of bytes written (Byte)
system.generators11.totalReadLatency         17731440                       # Total latency of read requests (Tick)
system.generators11.totalWriteLatency               0                       # Total latency of write requests (Tick)
system.generators11.totalReads                     46                       # Total num of reads (Count)
system.generators11.totalWrites                     0                       # Total num of writes (Count)
system.generators11.avgReadLatency       385466.086957                       # Avg latency of read requests ((Tick/Count))
system.generators11.avgWriteLatency               nan                       # Avg latency of write requests ((Tick/Count))
system.generators11.readBW               294299938.021073                       # Read bandwidth ((Byte/Second))
system.generators11.writeBW                         0                       # Write bandwidth ((Byte/Second))
system.generators11.power_state.pwrStateResidencyTicks::UNDEFINED     10003400                       # Cumulative time (in ticks) in various power states (Tick)
system.generators12.numSuppressed                   0                       # Number of suppressed packets to non-memory space (Count)
system.generators12.numPackets                     47                       # Number of packets generated (Count)
system.generators12.numRetries                     47                       # Number of retries (Count)
system.generators12.retryTicks                9811920                       # Time spent waiting due to back-pressure (Tick)
system.generators12.bytesRead                    2944                       # Number of bytes read (Byte)
system.generators12.bytesWritten                    0                       # Number of bytes written (Byte)
system.generators12.totalReadLatency         17959520                       # Total latency of read requests (Tick)
system.generators12.totalWriteLatency               0                       # Total latency of write requests (Tick)
system.generators12.totalReads                     46                       # Total num of reads (Count)
system.generators12.totalWrites                     0                       # Total num of writes (Count)
system.generators12.avgReadLatency       390424.347826                       # Avg latency of read requests ((Tick/Count))
system.generators12.avgWriteLatency               nan                       # Avg latency of write requests ((Tick/Count))
system.generators12.readBW               294299938.021073                       # Read bandwidth ((Byte/Second))
system.generators12.writeBW                         0                       # Write bandwidth ((Byte/Second))
system.generators12.power_state.pwrStateResidencyTicks::UNDEFINED     10003400                       # Cumulative time (in ticks) in various power states (Tick)
system.generators13.numSuppressed                   0                       # Number of suppressed packets to non-memory space (Count)
system.generators13.numPackets                     47                       # Number of packets generated (Count)
system.generators13.numRetries                     47                       # Number of retries (Count)
system.generators13.retryTicks                9811920                       # Time spent waiting due to back-pressure (Tick)
system.generators13.bytesRead                    2944                       # Number of bytes read (Byte)
system.generators13.bytesWritten                    0                       # Number of bytes written (Byte)
system.generators13.totalReadLatency         18296120                       # Total latency of read requests (Tick)
system.generators13.totalWriteLatency               0                       # Total latency of write requests (Tick)
system.generators13.totalReads                     46                       # Total num of reads (Count)
system.generators13.totalWrites                     0                       # Total num of writes (Count)
system.generators13.avgReadLatency       397741.739130                       # Avg latency of read requests ((Tick/Count))
system.generators13.avgWriteLatency               nan                       # Avg latency of write requests ((Tick/Count))
system.generators13.readBW               294299938.021073                       # Read bandwidth ((Byte/Second))
system.generators13.writeBW                         0                       # Write bandwidth ((Byte/Second))
system.generators13.power_state.pwrStateResidencyTicks::UNDEFINED     10003400                       # Cumulative time (in ticks) in various power states (Tick)
system.generators14.numSuppressed                   0                       # Number of suppressed packets to non-memory space (Count)
system.generators14.numPackets                     47                       # Number of packets generated (Count)
system.generators14.numRetries                     56                       # Number of retries (Count)
system.generators14.retryTicks                9817440                       # Time spent waiting due to back-pressure (Tick)
system.generators14.bytesRead                    2944                       # Number of bytes read (Byte)
system.generators14.bytesWritten                    0                       # Number of bytes written (Byte)
system.generators14.totalReadLatency         18009440                       # Total latency of read requests (Tick)
system.generators14.totalWriteLatency               0                       # Total latency of write requests (Tick)
system.generators14.totalReads                     46                       # Total num of reads (Count)
system.generators14.totalWrites                     0                       # Total num of writes (Count)
system.generators14.avgReadLatency       391509.565217                       # Avg latency of read requests ((Tick/Count))
system.generators14.avgWriteLatency               nan                       # Avg latency of write requests ((Tick/Count))
system.generators14.readBW               294299938.021073                       # Read bandwidth ((Byte/Second))
system.generators14.writeBW                         0                       # Write bandwidth ((Byte/Second))
system.generators14.power_state.pwrStateResidencyTicks::UNDEFINED     10003400                       # Cumulative time (in ticks) in various power states (Tick)
system.generators15.numSuppressed                   0                       # Number of suppressed packets to non-memory space (Count)
system.generators15.numPackets                     47                       # Number of packets generated (Count)
system.generators15.numRetries                     48                       # Number of retries (Count)
system.generators15.retryTicks                9817440                       # Time spent waiting due to back-pressure (Tick)
system.generators15.bytesRead                    2944                       # Number of bytes read (Byte)
system.generators15.bytesWritten                    0                       # Number of bytes written (Byte)
system.generators15.totalReadLatency         18131240                       # Total latency of read requests (Tick)
system.generators15.totalWriteLatency               0                       # Total latency of write requests (Tick)
system.generators15.totalReads                     46                       # Total num of reads (Count)
system.generators15.totalWrites                     0                       # Total num of writes (Count)
system.generators15.avgReadLatency       394157.391304                       # Avg latency of read requests ((Tick/Count))
system.generators15.avgWriteLatency               nan                       # Avg latency of write requests ((Tick/Count))
system.generators15.readBW               294299938.021073                       # Read bandwidth ((Byte/Second))
system.generators15.writeBW                         0                       # Write bandwidth ((Byte/Second))
system.generators15.power_state.pwrStateResidencyTicks::UNDEFINED     10003400                       # Cumulative time (in ticks) in various power states (Tick)
system.generators16.numSuppressed                   0                       # Number of suppressed packets to non-memory space (Count)
system.generators16.numPackets                     47                       # Number of packets generated (Count)
system.generators16.numRetries                     46                       # Number of retries (Count)
system.generators16.retryTicks                9817440                       # Time spent waiting due to back-pressure (Tick)
system.generators16.bytesRead                    2944                       # Number of bytes read (Byte)
system.generators16.bytesWritten                    0                       # Number of bytes written (Byte)
system.generators16.totalReadLatency         18580040                       # Total latency of read requests (Tick)
system.generators16.totalWriteLatency               0                       # Total latency of write requests (Tick)
system.generators16.totalReads                     46                       # Total num of reads (Count)
system.generators16.totalWrites                     0                       # Total num of writes (Count)
system.generators16.avgReadLatency       403913.913043                       # Avg latency of read requests ((Tick/Count))
system.generators16.avgWriteLatency               nan                       # Avg latency of write requests ((Tick/Count))
system.generators16.readBW               294299938.021073                       # Read bandwidth ((Byte/Second))
system.generators16.writeBW                         0                       # Write bandwidth ((Byte/Second))
system.generators16.power_state.pwrStateResidencyTicks::UNDEFINED     10003400                       # Cumulative time (in ticks) in various power states (Tick)
system.generators17.numSuppressed                   0                       # Number of suppressed packets to non-memory space (Count)
system.generators17.numPackets                     47                       # Number of packets generated (Count)
system.generators17.numRetries                     56                       # Number of retries (Count)
system.generators17.retryTicks                9817440                       # Time spent waiting due to back-pressure (Tick)
system.generators17.bytesRead                    2944                       # Number of bytes read (Byte)
system.generators17.bytesWritten                    0                       # Number of bytes written (Byte)
system.generators17.totalReadLatency         17951240                       # Total latency of read requests (Tick)
system.generators17.totalWriteLatency               0                       # Total latency of write requests (Tick)
system.generators17.totalReads                     46                       # Total num of reads (Count)
system.generators17.totalWrites                     0                       # Total num of writes (Count)
system.generators17.avgReadLatency       390244.347826                       # Avg latency of read requests ((Tick/Count))
system.generators17.avgWriteLatency               nan                       # Avg latency of write requests ((Tick/Count))
system.generators17.readBW               294299938.021073                       # Read bandwidth ((Byte/Second))
system.generators17.writeBW                         0                       # Write bandwidth ((Byte/Second))
system.generators17.power_state.pwrStateResidencyTicks::UNDEFINED     10003400                       # Cumulative time (in ticks) in various power states (Tick)
system.generators18.numSuppressed                   0                       # Number of suppressed packets to non-memory space (Count)
system.generators18.numPackets                     47                       # Number of packets generated (Count)
system.generators18.numRetries                     46                       # Number of retries (Count)
system.generators18.retryTicks                9817440                       # Time spent waiting due to back-pressure (Tick)
system.generators18.bytesRead                    2944                       # Number of bytes read (Byte)
system.generators18.bytesWritten                    0                       # Number of bytes written (Byte)
system.generators18.totalReadLatency         18400040                       # Total latency of read requests (Tick)
system.generators18.totalWriteLatency               0                       # Total latency of write requests (Tick)
system.generators18.totalReads                     46                       # Total num of reads (Count)
system.generators18.totalWrites                     0                       # Total num of writes (Count)
system.generators18.avgReadLatency       400000.869565                       # Avg latency of read requests ((Tick/Count))
system.generators18.avgWriteLatency               nan                       # Avg latency of write requests ((Tick/Count))
system.generators18.readBW               294299938.021073                       # Read bandwidth ((Byte/Second))
system.generators18.writeBW                         0                       # Write bandwidth ((Byte/Second))
system.generators18.power_state.pwrStateResidencyTicks::UNDEFINED     10003400                       # Cumulative time (in ticks) in various power states (Tick)
system.generators19.numSuppressed                   0                       # Number of suppressed packets to non-memory space (Count)
system.generators19.numPackets                     47                       # Number of packets generated (Count)
system.generators19.numRetries                     46                       # Number of retries (Count)
system.generators19.retryTicks                9817440                       # Time spent waiting due to back-pressure (Tick)
system.generators19.bytesRead                    2944                       # Number of bytes read (Byte)
system.generators19.bytesWritten                    0                       # Number of bytes written (Byte)
system.generators19.totalReadLatency         18848840                       # Total latency of read requests (Tick)
system.generators19.totalWriteLatency               0                       # Total latency of write requests (Tick)
system.generators19.totalReads                     46                       # Total num of reads (Count)
system.generators19.totalWrites                     0                       # Total num of writes (Count)
system.generators19.avgReadLatency       409757.391304                       # Avg latency of read requests ((Tick/Count))
system.generators19.avgWriteLatency               nan                       # Avg latency of write requests ((Tick/Count))
system.generators19.readBW               294299938.021073                       # Read bandwidth ((Byte/Second))
system.generators19.writeBW                         0                       # Write bandwidth ((Byte/Second))
system.generators19.power_state.pwrStateResidencyTicks::UNDEFINED     10003400                       # Cumulative time (in ticks) in various power states (Tick)
system.generators2.numSuppressed                    0                       # Number of suppressed packets to non-memory space (Count)
system.generators2.numPackets                      47                       # Number of packets generated (Count)
system.generators2.numRetries                      76                       # Number of retries (Count)
system.generators2.retryTicks                 9735840                       # Time spent waiting due to back-pressure (Tick)
system.generators2.bytesRead                     2944                       # Number of bytes read (Byte)
system.generators2.bytesWritten                     0                       # Number of bytes written (Byte)
system.generators2.totalReadLatency          16064240                       # Total latency of read requests (Tick)
system.generators2.totalWriteLatency                0                       # Total latency of write requests (Tick)
system.generators2.totalReads                      46                       # Total num of reads (Count)
system.generators2.totalWrites                      0                       # Total num of writes (Count)
system.generators2.avgReadLatency        349222.608696                       # Avg latency of read requests ((Tick/Count))
system.generators2.avgWriteLatency                nan                       # Avg latency of write requests ((Tick/Count))
system.generators2.readBW                294299938.021073                       # Read bandwidth ((Byte/Second))
system.generators2.writeBW                          0                       # Write bandwidth ((Byte/Second))
system.generators2.power_state.pwrStateResidencyTicks::UNDEFINED     10003400                       # Cumulative time (in ticks) in various power states (Tick)
system.generators20.numSuppressed                   0                       # Number of suppressed packets to non-memory space (Count)
system.generators20.numPackets                     47                       # Number of packets generated (Count)
system.generators20.numRetries                     46                       # Number of retries (Count)
system.generators20.retryTicks                9817440                       # Time spent waiting due to back-pressure (Tick)
system.generators20.bytesRead                    2944                       # Number of bytes read (Byte)
system.generators20.bytesWritten                    0                       # Number of bytes written (Byte)
system.generators20.totalReadLatency         19297640                       # Total latency of read requests (Tick)
system.generators20.totalWriteLatency               0                       # Total latency of write requests (Tick)
system.generators20.totalReads                     46                       # Total num of reads (Count)
system.generators20.totalWrites                     0                       # Total num of writes (Count)
system.generators20.avgReadLatency       419513.913043                       # Avg latency of read requests ((Tick/Count))
system.generators20.avgWriteLatency               nan                       # Avg latency of write requests ((Tick/Count))
system.generators20.readBW               294299938.021073                       # Read bandwidth ((Byte/Second))
system.generators20.writeBW                         0                       # Write bandwidth ((Byte/Second))
system.generators20.power_state.pwrStateResidencyTicks::UNDEFINED     10003400                       # Cumulative time (in ticks) in various power states (Tick)
system.generators21.numSuppressed                   0                       # Number of suppressed packets to non-memory space (Count)
system.generators21.numPackets                     47                       # Number of packets generated (Count)
system.generators21.numRetries                     46                       # Number of retries (Count)
system.generators21.retryTicks                9817440                       # Time spent waiting due to back-pressure (Tick)
system.generators21.bytesRead                    2944                       # Number of bytes read (Byte)
system.generators21.bytesWritten                    0                       # Number of bytes written (Byte)
system.generators21.totalReadLatency         19746440                       # Total latency of read requests (Tick)
system.generators21.totalWriteLatency               0                       # Total latency of write requests (Tick)
system.generators21.totalReads                     46                       # Total num of reads (Count)
system.generators21.totalWrites                     0                       # Total num of writes (Count)
system.generators21.avgReadLatency       429270.434783                       # Avg latency of read requests ((Tick/Count))
system.generators21.avgWriteLatency               nan                       # Avg latency of write requests ((Tick/Count))
system.generators21.readBW               294299938.021073                       # Read bandwidth ((Byte/Second))
system.generators21.writeBW                         0                       # Write bandwidth ((Byte/Second))
system.generators21.power_state.pwrStateResidencyTicks::UNDEFINED     10003400                       # Cumulative time (in ticks) in various power states (Tick)
system.generators22.numSuppressed                   0                       # Number of suppressed packets to non-memory space (Count)
system.generators22.numPackets                     47                       # Number of packets generated (Count)
system.generators22.numRetries                     46                       # Number of retries (Count)
system.generators22.retryTicks                9817440                       # Time spent waiting due to back-pressure (Tick)
system.generators22.bytesRead                    2944                       # Number of bytes read (Byte)
system.generators22.bytesWritten                    0                       # Number of bytes written (Byte)
system.generators22.totalReadLatency         20195240                       # Total latency of read requests (Tick)
system.generators22.totalWriteLatency               0                       # Total latency of write requests (Tick)
system.generators22.totalReads                     46                       # Total num of reads (Count)
system.generators22.totalWrites                     0                       # Total num of writes (Count)
system.generators22.avgReadLatency       439026.956522                       # Avg latency of read requests ((Tick/Count))
system.generators22.avgWriteLatency               nan                       # Avg latency of write requests ((Tick/Count))
system.generators22.readBW               294299938.021073                       # Read bandwidth ((Byte/Second))
system.generators22.writeBW                         0                       # Write bandwidth ((Byte/Second))
system.generators22.power_state.pwrStateResidencyTicks::UNDEFINED     10003400                       # Cumulative time (in ticks) in various power states (Tick)
system.generators23.numSuppressed                   0                       # Number of suppressed packets to non-memory space (Count)
system.generators23.numPackets                     47                       # Number of packets generated (Count)
system.generators23.numRetries                     47                       # Number of retries (Count)
system.generators23.retryTicks                9817440                       # Time spent waiting due to back-pressure (Tick)
system.generators23.bytesRead                    2944                       # Number of bytes read (Byte)
system.generators23.bytesWritten                    0                       # Number of bytes written (Byte)
system.generators23.totalReadLatency         20521640                       # Total latency of read requests (Tick)
system.generators23.totalWriteLatency               0                       # Total latency of write requests (Tick)
system.generators23.totalReads                     46                       # Total num of reads (Count)
system.generators23.totalWrites                     0                       # Total num of writes (Count)
system.generators23.avgReadLatency       446122.608696                       # Avg latency of read requests ((Tick/Count))
system.generators23.avgWriteLatency               nan                       # Avg latency of write requests ((Tick/Count))
system.generators23.readBW               294299938.021073                       # Read bandwidth ((Byte/Second))
system.generators23.writeBW                         0                       # Write bandwidth ((Byte/Second))
system.generators23.power_state.pwrStateResidencyTicks::UNDEFINED     10003400                       # Cumulative time (in ticks) in various power states (Tick)
system.generators24.numSuppressed                   0                       # Number of suppressed packets to non-memory space (Count)
system.generators24.numPackets                     47                       # Number of packets generated (Count)
[...]
system.membus.respLayer0.utilization              0.0                       # Layer utilization (Ratio)
system.membus.respLayer1.occupancy              18400                       # Layer occupancy (ticks) (Tick)
system.membus.respLayer1.utilization              0.0                       # Layer utilization (Ratio)
system.membus.respLayer10.occupancy             18400                       # Layer occupancy (ticks) (Tick)
system.membus.respLayer10.utilization             0.0                       # Layer utilization (Ratio)
system.membus.respLayer11.occupancy             18400                       # Layer occupancy (ticks) (Tick)
system.membus.respLayer11.utilization             0.0                       # Layer utilization (Ratio)
system.membus.respLayer12.occupancy             18400                       # Layer occupancy (ticks) (Tick)
system.membus.respLayer12.utilization             0.0                       # Layer utilization (Ratio)
system.membus.respLayer13.occupancy             18400                       # Layer occupancy (ticks) (Tick)
system.membus.respLayer13.utilization             0.0                       # Layer utilization (Ratio)
system.membus.respLayer14.occupancy             18400                       # Layer occupancy (ticks) (Tick)
system.membus.respLayer14.utilization             0.0                       # Layer utilization (Ratio)
system.membus.respLayer15.occupancy             18400                       # Layer occupancy (ticks) (Tick)
system.membus.respLayer15.utilization             0.0                       # Layer utilization (Ratio)
system.membus.respLayer16.occupancy             18400                       # Layer occupancy (ticks) (Tick)
system.membus.respLayer16.utilization             0.0                       # Layer utilization (Ratio)
system.membus.respLayer17.occupancy             18400                       # Layer occupancy (ticks) (Tick)
system.membus.respLayer17.utilization             0.0                       # Layer utilization (Ratio)
system.membus.respLayer18.occupancy             18400                       # Layer occupancy (ticks) (Tick)
system.membus.respLayer18.utilization             0.0                       # Layer utilization (Ratio)
system.membus.respLayer19.occupancy             18400                       # Layer occupancy (ticks) (Tick)
system.membus.respLayer19.utilization             0.0                       # Layer utilization (Ratio)
system.membus.respLayer2.occupancy              18400                       # Layer occupancy (ticks) (Tick)
system.membus.respLayer2.utilization              0.0                       # Layer utilization (Ratio)
system.membus.respLayer20.occupancy             18400                       # Layer occupancy (ticks) (Tick)
system.membus.respLayer20.utilization             0.0                       # Layer utilization (Ratio)
system.membus.respLayer21.occupancy             18400                       # Layer occupancy (ticks) (Tick)
system.membus.respLayer21.utilization             0.0                       # Layer utilization (Ratio)
system.membus.respLayer22.occupancy             18400                       # Layer occupancy (ticks) (Tick)
system.membus.respLayer22.utilization             0.0                       # Layer utilization (Ratio)
system.membus.respLayer23.occupancy             18400                       # Layer occupancy (ticks) (Tick)
system.membus.respLayer23.utilization             0.0                       # Layer utilization (Ratio)
system.membus.respLayer24.occupancy             18000                       # Layer occupancy (ticks) (Tick)
system.membus.respLayer24.utilization             0.0                       # Layer utilization (Ratio)
system.membus.respLayer25.occupancy             18000                       # Layer occupancy (ticks) (Tick)
system.membus.respLayer25.utilization             0.0                       # Layer utilization (Ratio)
system.membus.respLayer26.occupancy             18000                       # Layer occupancy (ticks) (Tick)
system.membus.respLayer26.utilization             0.0                       # Layer utilization (Ratio)
system.membus.respLayer27.occupancy             18000                       # Layer occupancy (ticks) (Tick)
system.membus.respLayer27.utilization             0.0                       # Layer utilization (Ratio)
system.membus.respLayer28.occupancy             17600                       # Layer occupancy (ticks) (Tick)
system.membus.respLayer28.utilization             0.0                       # Layer utilization (Ratio)
system.membus.respLayer29.occupancy             17600                       # Layer occupancy (ticks) (Tick)
system.membus.respLayer29.utilization             0.0                       # Layer utilization (Ratio)
system.membus.respLayer3.occupancy              18400                       # Layer occupancy (ticks) (Tick)
system.membus.respLayer3.utilization              0.0                       # Layer utilization (Ratio)
system.membus.respLayer30.occupancy             17600                       # Layer occupancy (ticks) (Tick)
system.membus.respLayer30.utilization             0.0                       # Layer utilization (Ratio)
system.membus.respLayer31.occupancy             17720                       # Layer occupancy (ticks) (Tick)
system.membus.respLayer31.utilization             0.0                       # Layer utilization (Ratio)
system.membus.respLayer4.occupancy              18400                       # Layer occupancy (ticks) (Tick)
system.membus.respLayer4.utilization              0.0                       # Layer utilization (Ratio)
system.membus.respLayer5.occupancy              18400                       # Layer occupancy (ticks) (Tick)
system.membus.respLayer5.utilization              0.0                       # Layer utilization (Ratio)
system.membus.respLayer6.occupancy              18400                       # Layer occupancy (ticks) (Tick)
system.membus.respLayer6.utilization              0.0                       # Layer utilization (Ratio)
system.membus.respLayer7.occupancy              18400                       # Layer occupancy (ticks) (Tick)
system.membus.respLayer7.utilization              0.0                       # Layer utilization (Ratio)
system.membus.respLayer8.occupancy              18400                       # Layer occupancy (ticks) (Tick)
system.membus.respLayer8.utilization              0.0                       # Layer utilization (Ratio)
system.membus.respLayer9.occupancy              18400                       # Layer occupancy (ticks) (Tick)
system.membus.respLayer9.utilization              0.0                       # Layer utilization (Ratio)
system.membus.snoop_filter.totRequests              0                       # Total number of requests made to the snoop filter. (Count)
system.membus.snoop_filter.hitSingleRequests            0                       # Number of requests hitting in the snoop filter with a single holder of the requested data. (Count)
system.membus.snoop_filter.hitMultiRequests            0                       # Number of requests hitting in the snoop filter with multiple (>1) holders of the requested data. (Count)
system.membus.snoop_filter.totSnoops                0                       # Total number of snoops made to the snoop filter. (Count)
system.membus.snoop_filter.hitSingleSnoops            0                       # Number of snoops hitting in the snoop filter with a single holder of the requested data. (Count)
system.membus.snoop_filter.hitMultiSnoops            0                       # Number of snoops hitting in the snoop filter with multiple (>1) holders of the requested data. (Count)
system.membusPolManFarMem.transDist::ReadReq           46                       # Transaction distribution (Count)
system.membusPolManFarMem.transDist::ReadResp           46                       # Transaction distribution (Count)
system.membusPolManFarMem.pktCount_system.mem_ctrl.far_req_port::system.far_mem_ctrl.port           92                       # Packet count per connected requestor and responder (Count)
system.membusPolManFarMem.pktSize_system.mem_ctrl.far_req_port::system.far_mem_ctrl.port         2944                       # Cumulative packet size per connected requestor and responder (Byte)
system.membusPolManFarMem.snoops                    0                       # Total snoops (Count)
system.membusPolManFarMem.snoopTraffic              0                       # Total snoop traffic (Byte)
system.membusPolManFarMem.snoopFanout::samples           46                       # Request fanout histogram (Count)
system.membusPolManFarMem.snoopFanout::mean            0                       # Request fanout histogram (Count)
system.membusPolManFarMem.snoopFanout::stdev            0                       # Request fanout histogram (Count)
system.membusPolManFarMem.snoopFanout::underflows            0      0.00%      0.00% # Request fanout histogram (Count)
system.membusPolManFarMem.snoopFanout::0           46    100.00%    100.00% # Request fanout histogram (Count)
system.membusPolManFarMem.snoopFanout::overflows            0      0.00%    100.00% # Request fanout histogram (Count)
system.membusPolManFarMem.snoopFanout::min_value            0                       # Request fanout histogram (Count)
system.membusPolManFarMem.snoopFanout::max_value            0                       # Request fanout histogram (Count)
system.membusPolManFarMem.snoopFanout::total           46                       # Request fanout histogram (Count)
system.membusPolManFarMem.power_state.pwrStateResidencyTicks::UNDEFINED     10003400                       # Cumulative time (in ticks) in various power states (Tick)
system.membusPolManFarMem.reqLayer0.occupancy         9200                       # Layer occupancy (ticks) (Tick)
system.membusPolManFarMem.reqLayer0.utilization          0.0                       # Layer utilization (Ratio)
system.membusPolManFarMem.respLayer0.occupancy        24048                       # Layer occupancy (ticks) (Tick)
system.membusPolManFarMem.respLayer0.utilization          0.0                       # Layer utilization (Ratio)
system.membusPolManFarMem.snoop_filter.totRequests            0                       # Total number of requests made to the snoop filter. (Count)
system.membusPolManFarMem.snoop_filter.hitSingleRequests            0                       # Number of requests hitting in the snoop filter with a single holder of the requested data. (Count)
system.membusPolManFarMem.snoop_filter.hitMultiRequests            0                       # Number of requests hitting in the snoop filter with multiple (>1) holders of the requested data. (Count)
system.membusPolManFarMem.snoop_filter.totSnoops            0                       # Total number of snoops made to the snoop filter. (Count)
system.membusPolManFarMem.snoop_filter.hitSingleSnoops            0                       # Number of snoops hitting in the snoop filter with a single holder of the requested data. (Count)
system.membusPolManFarMem.snoop_filter.hitMultiSnoops            0                       # Number of snoops hitting in the snoop filter with multiple (>1) holders of the requested data. (Count)
system.membusPolManLocMem.transDist::ReadReq         1466                       # Transaction distribution (Count)
system.membusPolManLocMem.transDist::ReadResp         1464                       # Transaction distribution (Count)
system.membusPolManLocMem.transDist::WriteReq           46                       # Transaction distribution (Count)
system.membusPolManLocMem.transDist::WriteResp           46                       # Transaction distribution (Count)
system.membusPolManLocMem.pktCount_system.mem_ctrl.loc_req_port::system.loc_mem_ctrlrs0.port          396                       # Packet count per connected requestor and responder (Count)
system.membusPolManLocMem.pktCount_system.mem_ctrl.loc_req_port::system.loc_mem_ctrlrs1.port          396                       # Packet count per connected requestor and responder (Count)
system.membusPolManLocMem.pktCount_system.mem_ctrl.loc_req_port::system.loc_mem_ctrlrs2.port          396                       # Packet count per connected requestor and responder (Count)
system.membusPolManLocMem.pktCount_system.mem_ctrl.loc_req_port::system.loc_mem_ctrlrs3.port          396                       # Packet count per connected requestor and responder (Count)
system.membusPolManLocMem.pktCount_system.mem_ctrl.loc_req_port::system.loc_mem_ctrlrs4.port          393                       # Packet count per connected requestor and responder (Count)
system.membusPolManLocMem.pktCount_system.mem_ctrl.loc_req_port::system.loc_mem_ctrlrs5.port          385                       # Packet count per connected requestor and responder (Count)
system.membusPolManLocMem.pktCount_system.mem_ctrl.loc_req_port::system.loc_mem_ctrlrs6.port          330                       # Packet count per connected requestor and responder (Count)
system.membusPolManLocMem.pktCount_system.mem_ctrl.loc_req_port::system.loc_mem_ctrlrs7.port          330                       # Packet count per connected requestor and responder (Count)
system.membusPolManLocMem.pktCount_system.mem_ctrl.loc_req_port::total         3022                       # Packet count per connected requestor and responder (Count)
system.membusPolManLocMem.pktSize_system.mem_ctrl.loc_req_port::system.loc_mem_ctrlrs0.port        12672                       # Cumulative packet size per connected requestor and responder (Byte)
system.membusPolManLocMem.pktSize_system.mem_ctrl.loc_req_port::system.loc_mem_ctrlrs1.port        12672                       # Cumulative packet size per connected requestor and responder (Byte)
system.membusPolManLocMem.pktSize_system.mem_ctrl.loc_req_port::system.loc_mem_ctrlrs2.port        12672                       # Cumulative packet size per connected requestor and responder (Byte)
system.membusPolManLocMem.pktSize_system.mem_ctrl.loc_req_port::system.loc_mem_ctrlrs3.port        12672                       # Cumulative packet size per connected requestor and responder (Byte)
system.membusPolManLocMem.pktSize_system.mem_ctrl.loc_req_port::system.loc_mem_ctrlrs4.port        12544                       # Cumulative packet size per connected requestor and responder (Byte)
system.membusPolManLocMem.pktSize_system.mem_ctrl.loc_req_port::system.loc_mem_ctrlrs5.port        12288                       # Cumulative packet size per connected requestor and responder (Byte)
system.membusPolManLocMem.pktSize_system.mem_ctrl.loc_req_port::system.loc_mem_ctrlrs6.port        10560                       # Cumulative packet size per connected requestor and responder (Byte)
system.membusPolManLocMem.pktSize_system.mem_ctrl.loc_req_port::system.loc_mem_ctrlrs7.port        10560                       # Cumulative packet size per connected requestor and responder (Byte)
system.membusPolManLocMem.pktSize_system.mem_ctrl.loc_req_port::total        96640                       # Cumulative packet size per connected requestor and responder (Byte)
system.membusPolManLocMem.snoops                    0                       # Total snoops (Count)
system.membusPolManLocMem.snoopTraffic              0                       # Total snoop traffic (Byte)
system.membusPolManLocMem.snoopFanout::samples         1512                       # Request fanout histogram (Count)
system.membusPolManLocMem.snoopFanout::mean            0                       # Request fanout histogram (Count)
system.membusPolManLocMem.snoopFanout::stdev            0                       # Request fanout histogram (Count)
system.membusPolManLocMem.snoopFanout::underflows            0      0.00%      0.00% # Request fanout histogram (Count)
system.membusPolManLocMem.snoopFanout::0         1512    100.00%    100.00% # Request fanout histogram (Count)
system.membusPolManLocMem.snoopFanout::overflows            0      0.00%    100.00% # Request fanout histogram (Count)
system.membusPolManLocMem.snoopFanout::min_value            0                       # Request fanout histogram (Count)
system.membusPolManLocMem.snoopFanout::max_value            0                       # Request fanout histogram (Count)
system.membusPolManLocMem.snoopFanout::total         1512                       # Request fanout histogram (Count)
system.membusPolManLocMem.power_state.pwrStateResidencyTicks::UNDEFINED     10003400                       # Cumulative time (in ticks) in various power states (Tick)
system.membusPolManLocMem.reqLayer0.occupancy        40880                       # Layer occupancy (ticks) (Tick)
system.membusPolManLocMem.reqLayer0.utilization          0.0                       # Layer utilization (Ratio)
system.membusPolManLocMem.reqLayer1.occupancy        40960                       # Layer occupancy (ticks) (Tick)
system.membusPolManLocMem.reqLayer1.utilization          0.0                       # Layer utilization (Ratio)
system.membusPolManLocMem.reqLayer2.occupancy        40800                       # Layer occupancy (ticks) (Tick)
system.membusPolManLocMem.reqLayer2.utilization          0.0                       # Layer utilization (Ratio)
system.membusPolManLocMem.reqLayer3.occupancy        40800                       # Layer occupancy (ticks) (Tick)
system.membusPolManLocMem.reqLayer3.utilization          0.0                       # Layer utilization (Ratio)
system.membusPolManLocMem.reqLayer4.occupancy        40600                       # Layer occupancy (ticks) (Tick)
system.membusPolManLocMem.reqLayer4.utilization          0.0                       # Layer utilization (Ratio)
system.membusPolManLocMem.reqLayer5.occupancy        39800                       # Layer occupancy (ticks) (Tick)
system.membusPolManLocMem.reqLayer5.utilization          0.0                       # Layer utilization (Ratio)
system.membusPolManLocMem.reqLayer6.occupancy        34000                       # Layer occupancy (ticks) (Tick)
system.membusPolManLocMem.reqLayer6.utilization          0.0                       # Layer utilization (Ratio)
system.membusPolManLocMem.reqLayer7.occupancy        34000                       # Layer occupancy (ticks) (Tick)
system.membusPolManLocMem.reqLayer7.utilization          0.0                       # Layer utilization (Ratio)
system.membusPolManLocMem.respLayer0.occupancy       594920                       # Layer occupancy (ticks) (Tick)
system.membusPolManLocMem.respLayer0.utilization          0.1                       # Layer utilization (Ratio)
system.membusPolManLocMem.snoop_filter.totRequests            0                       # Total number of requests made to the snoop filter. (Count)
system.membusPolManLocMem.snoop_filter.hitSingleRequests            0                       # Number of requests hitting in the snoop filter with a single holder of the requested data. (Count)
system.membusPolManLocMem.snoop_filter.hitMultiRequests            0                       # Number of requests hitting in the snoop filter with multiple (>1) holders of the requested data. (Count)
system.membusPolManLocMem.snoop_filter.totSnoops            0                       # Total number of snoops made to the snoop filter. (Count)
system.membusPolManLocMem.snoop_filter.hitSingleSnoops            0                       # Number of snoops hitting in the snoop filter with a single holder of the requested data. (Count)
system.membusPolManLocMem.snoop_filter.hitMultiSnoops            0                       # Number of snoops hitting in the snoop filter with multiple (>1) holders of the requested data. (Count)
system.workload.inst.arm                            0                       # number of arm instructions executed (Count)
system.workload.inst.quiesce                        0                       # number of quiesce instructions executed (Count)

---------- End Simulation Statistics   ----------
