
---------- Begin Simulation Statistics ----------
simSeconds                                   0.000100                       # Number of seconds simulated (Second)
simTicks                                    100014960                       # Number of ticks simulated (Tick)
finalTick                                   100014960                       # Number of ticks from beginning of simulation (restored from checkpoints and never reset) (Tick)
simFreq                                  1000000000000                       # The number of ticks per simulated second ((Tick/Second))
hostSeconds                                      0.28                       # Real time elapsed on the host (Second)
hostTickRate                                361796767                       # The number of ticks simulated per host second (ticks/s) ((Tick/Second))
hostMemory                                    8499872                       # Number of bytes of host memory used (Byte)
system.clk_domain.clock                           200                       # Clock period in ticks (Tick)
system.clk_domain.voltage_domain.voltage            1                       # Voltage in Volts (Volt)
system.far_mem_ctrl0.avgPriority_writebacks::samples      5714.00                       # Average QoS priority value for accepted requests (Count)
system.far_mem_ctrl0.priorityMinLatency  0.000000317492                       # per QoS priority minimum request to response latency (Second)
system.far_mem_ctrl0.priorityMaxLatency  0.000002286156                       # per QoS priority maximum request to response latency (Second)
system.far_mem_ctrl0.numReadWriteTurnArounds            0                       # Number of turnarounds from READ to WRITE (Count)
system.far_mem_ctrl0.numWriteReadTurnArounds            0                       # Number of turnarounds from WRITE to READ (Count)
system.far_mem_ctrl0.numStayReadState           17067                       # Number of times bus staying in READ state (Count)
system.far_mem_ctrl0.numStayWriteState              0                       # Number of times bus staying in WRITE state (Count)
system.far_mem_ctrl0.readReqs                    5714                       # Number of read requests accepted (Count)
system.far_mem_ctrl0.writeReqs                      0                       # Number of write requests accepted (Count)
system.far_mem_ctrl0.readBursts                  5714                       # Number of controller read bursts, including those serviced by the write queue (Count)
system.far_mem_ctrl0.writeBursts                    0                       # Number of controller write bursts, including those merged in the write queue (Count)
system.far_mem_ctrl0.servicedByWrQ                  0                       # Number of controller read bursts serviced by the write queue (Count)
system.far_mem_ctrl0.mergedWrBursts                 0                       # Number of controller write bursts merged with an existing one (Count)
system.far_mem_ctrl0.neitherReadNorWriteReqs            0                       # Number of requests that are neither read nor write (Count)
system.far_mem_ctrl0.avgRdQLen                  17.83                       # Average read queue length when enqueuing ((Count/Tick))
system.far_mem_ctrl0.avgWrQLen                   0.00                       # Average write queue length when enqueuing ((Count/Tick))
system.far_mem_ctrl0.numRdRetry                     0                       # Number of times read queue was full causing retry (Count)
system.far_mem_ctrl0.numWrRetry                     0                       # Number of times write queue was full causing retry (Count)
system.far_mem_ctrl0.readPktSize::0                 0                       # Read request sizes (log2) (Count)
system.far_mem_ctrl0.readPktSize::1                 0                       # Read request sizes (log2) (Count)
system.far_mem_ctrl0.readPktSize::2                 0                       # Read request sizes (log2) (Count)
system.far_mem_ctrl0.readPktSize::3                 0                       # Read request sizes (log2) (Count)
system.far_mem_ctrl0.readPktSize::4                 0                       # Read request sizes (log2) (Count)
system.far_mem_ctrl0.readPktSize::5                 0                       # Read request sizes (log2) (Count)
system.far_mem_ctrl0.readPktSize::6              5714                       # Read request sizes (log2) (Count)
system.far_mem_ctrl0.writePktSize::0                0                       # Write request sizes (log2) (Count)
system.far_mem_ctrl0.writePktSize::1                0                       # Write request sizes (log2) (Count)
system.far_mem_ctrl0.writePktSize::2                0                       # Write request sizes (log2) (Count)
system.far_mem_ctrl0.writePktSize::3                0                       # Write request sizes (log2) (Count)
system.far_mem_ctrl0.writePktSize::4                0                       # Write request sizes (log2) (Count)
system.far_mem_ctrl0.writePktSize::5                0                       # Write request sizes (log2) (Count)
system.far_mem_ctrl0.writePktSize::6                0                       # Write request sizes (log2) (Count)
system.far_mem_ctrl0.rdQLenPdf::0                   4                       # What read queue length does an incoming req see (Count)
system.far_mem_ctrl0.rdQLenPdf::1                  12                       # What read queue length does an incoming req see (Count)
system.far_mem_ctrl0.rdQLenPdf::2                  17                       # What read queue length does an incoming req see (Count)
system.far_mem_ctrl0.rdQLenPdf::3                  24                       # What read queue length does an incoming req see (Count)
system.far_mem_ctrl0.rdQLenPdf::4                  38                       # What read queue length does an incoming req see (Count)
system.far_mem_ctrl0.rdQLenPdf::5                  59                       # What read queue length does an incoming req see (Count)
system.far_mem_ctrl0.rdQLenPdf::6                 111                       # What read queue length does an incoming req see (Count)
system.far_mem_ctrl0.rdQLenPdf::7                 204                       # What read queue length does an incoming req see (Count)
system.far_mem_ctrl0.rdQLenPdf::8                 258                       # What read queue length does an incoming req see (Count)
system.far_mem_ctrl0.rdQLenPdf::9                 329                       # What read queue length does an incoming req see (Count)
system.far_mem_ctrl0.rdQLenPdf::10                363                       # What read queue length does an incoming req see (Count)
system.far_mem_ctrl0.rdQLenPdf::11                409                       # What read queue length does an incoming req see (Count)
system.far_mem_ctrl0.rdQLenPdf::12                414                       # What read queue length does an incoming req see (Count)
system.far_mem_ctrl0.rdQLenPdf::13                465                       # What read queue length does an incoming req see (Count)
system.far_mem_ctrl0.rdQLenPdf::14                497                       # What read queue length does an incoming req see (Count)
system.far_mem_ctrl0.rdQLenPdf::15                512                       # What read queue length does an incoming req see (Count)
system.far_mem_ctrl0.rdQLenPdf::16                491                       # What read queue length does an incoming req see (Count)
system.far_mem_ctrl0.rdQLenPdf::17                448                       # What read queue length does an incoming req see (Count)
system.far_mem_ctrl0.rdQLenPdf::18                348                       # What read queue length does an incoming req see (Count)
system.far_mem_ctrl0.rdQLenPdf::19                228                       # What read queue length does an incoming req see (Count)
system.far_mem_ctrl0.rdQLenPdf::20                142                       # What read queue length does an incoming req see (Count)
system.far_mem_ctrl0.rdQLenPdf::21                 83                       # What read queue length does an incoming req see (Count)
system.far_mem_ctrl0.rdQLenPdf::22                 52                       # What read queue length does an incoming req see (Count)
system.far_mem_ctrl0.rdQLenPdf::23                 34                       # What read queue length does an incoming req see (Count)
system.far_mem_ctrl0.rdQLenPdf::24                 24                       # What read queue length does an incoming req see (Count)
system.far_mem_ctrl0.rdQLenPdf::25                 13                       # What read queue length does an incoming req see (Count)
system.far_mem_ctrl0.rdQLenPdf::26                  9                       # What read queue length does an incoming req see (Count)
system.far_mem_ctrl0.rdQLenPdf::27                  9                       # What read queue length does an incoming req see (Count)
system.far_mem_ctrl0.rdQLenPdf::28                  8                       # What read queue length does an incoming req see (Count)
system.far_mem_ctrl0.rdQLenPdf::29                  7                       # What read queue length does an incoming req see (Count)
system.far_mem_ctrl0.rdQLenPdf::30                  6                       # What read queue length does an incoming req see (Count)
system.far_mem_ctrl0.rdQLenPdf::31                  6                       # What read queue length does an incoming req see (Count)
system.far_mem_ctrl0.rdQLenPdf::32                 14                       # What read queue length does an incoming req see (Count)
system.far_mem_ctrl0.rdQLenPdf::33                  8                       # What read queue length does an incoming req see (Count)
system.far_mem_ctrl0.rdQLenPdf::34                  5                       # What read queue length does an incoming req see (Count)
system.far_mem_ctrl0.rdQLenPdf::35                  1                       # What read queue length does an incoming req see (Count)
system.far_mem_ctrl0.rdQLenPdf::36                  4                       # What read queue length does an incoming req see (Count)
system.far_mem_ctrl0.rdQLenPdf::37                  5                       # What read queue length does an incoming req see (Count)
system.far_mem_ctrl0.rdQLenPdf::38                  9                       # What read queue length does an incoming req see (Count)
system.far_mem_ctrl0.rdQLenPdf::39                  4                       # What read queue length does an incoming req see (Count)
system.far_mem_ctrl0.rdQLenPdf::40                  7                       # What read queue length does an incoming req see (Count)
system.far_mem_ctrl0.rdQLenPdf::41                  3                       # What read queue length does an incoming req see (Count)
system.far_mem_ctrl0.rdQLenPdf::42                  2                       # What read queue length does an incoming req see (Count)
system.far_mem_ctrl0.rdQLenPdf::43                  1                       # What read queue length does an incoming req see (Count)
system.far_mem_ctrl0.rdQLenPdf::44                  3                       # What read queue length does an incoming req see (Count)
system.far_mem_ctrl0.rdQLenPdf::45                  6                       # What read queue length does an incoming req see (Count)
system.far_mem_ctrl0.rdQLenPdf::46                  8                       # What read queue length does an incoming req see (Count)
system.far_mem_ctrl0.rdQLenPdf::47                  2                       # What read queue length does an incoming req see (Count)
system.far_mem_ctrl0.rdQLenPdf::48                  3                       # What read queue length does an incoming req see (Count)
system.far_mem_ctrl0.rdQLenPdf::49                  5                       # What read queue length does an incoming req see (Count)
system.far_mem_ctrl0.rdQLenPdf::50                  0                       # What read queue length does an incoming req see (Count)
system.far_mem_ctrl0.rdQLenPdf::51                  0                       # What read queue length does an incoming req see (Count)
system.far_mem_ctrl0.rdQLenPdf::52                  0                       # What read queue length does an incoming req see (Count)
system.far_mem_ctrl0.rdQLenPdf::53                  0                       # What read queue length does an incoming req see (Count)
system.far_mem_ctrl0.rdQLenPdf::54                  0                       # What read queue length does an incoming req see (Count)
system.far_mem_ctrl0.rdQLenPdf::55                  0                       # What read queue length does an incoming req see (Count)
system.far_mem_ctrl0.rdQLenPdf::56                  0                       # What read queue length does an incoming req see (Count)
system.far_mem_ctrl0.rdQLenPdf::57                  0                       # What read queue length does an incoming req see (Count)
system.far_mem_ctrl0.rdQLenPdf::58                  0                       # What read queue length does an incoming req see (Count)
system.far_mem_ctrl0.rdQLenPdf::59                  0                       # What read queue length does an incoming req see (Count)
system.far_mem_ctrl0.rdQLenPdf::60                  0                       # What read queue length does an incoming req see (Count)
system.far_mem_ctrl0.rdQLenPdf::61                  0                       # What read queue length does an incoming req see (Count)
system.far_mem_ctrl0.rdQLenPdf::62                  0                       # What read queue length does an incoming req see (Count)
system.far_mem_ctrl0.rdQLenPdf::63                  0                       # What read queue length does an incoming req see (Count)
system.far_mem_ctrl0.rdQLenPdf::64                  0                       # What read queue length does an incoming req see (Count)
system.far_mem_ctrl0.rdQLenPdf::65                  0                       # What read queue length does an incoming req see (Count)
system.far_mem_ctrl0.rdQLenPdf::66                  0                       # What read queue length does an incoming req see (Count)
system.far_mem_ctrl0.rdQLenPdf::67                  0                       # What read queue length does an incoming req see (Count)
system.far_mem_ctrl0.rdQLenPdf::68                  0                       # What read queue length does an incoming req see (Count)
system.far_mem_ctrl0.rdQLenPdf::69                  0                       # What read queue length does an incoming req see (Count)
system.far_mem_ctrl0.rdQLenPdf::70                  0                       # What read queue length does an incoming req see (Count)
system.far_mem_ctrl0.rdQLenPdf::71                  0                       # What read queue length does an incoming req see (Count)
system.far_mem_ctrl0.rdQLenPdf::72                  0                       # What read queue length does an incoming req see (Count)
system.far_mem_ctrl0.rdQLenPdf::73                  0                       # What read queue length does an incoming req see (Count)
system.far_mem_ctrl0.rdQLenPdf::74                  0                       # What read queue length does an incoming req see (Count)
system.far_mem_ctrl0.rdQLenPdf::75                  0                       # What read queue length does an incoming req see (Count)
system.far_mem_ctrl0.rdQLenPdf::76                  0                       # What read queue length does an incoming req see (Count)
system.far_mem_ctrl0.rdQLenPdf::77                  0                       # What read queue length does an incoming req see (Count)
system.far_mem_ctrl0.rdQLenPdf::78                  0                       # What read queue length does an incoming req see (Count)
system.far_mem_ctrl0.rdQLenPdf::79                  0                       # What read queue length does an incoming req see (Count)
system.far_mem_ctrl0.rdQLenPdf::80                  0                       # What read queue length does an incoming req see (Count)
system.far_mem_ctrl0.rdQLenPdf::81                  0                       # What read queue length does an incoming req see (Count)
system.far_mem_ctrl0.rdQLenPdf::82                  0                       # What read queue length does an incoming req see (Count)
system.far_mem_ctrl0.rdQLenPdf::83                  0                       # What read queue length does an incoming req see (Count)
system.far_mem_ctrl0.rdQLenPdf::84                  0                       # What read queue length does an incoming req see (Count)
system.far_mem_ctrl0.rdQLenPdf::85                  0                       # What read queue length does an incoming req see (Count)
system.far_mem_ctrl0.rdQLenPdf::86                  0                       # What read queue length does an incoming req see (Count)
system.far_mem_ctrl0.rdQLenPdf::87                  0                       # What read queue length does an incoming req see (Count)
system.far_mem_ctrl0.rdQLenPdf::88                  0                       # What read queue length does an incoming req see (Count)
system.far_mem_ctrl0.rdQLenPdf::89                  0                       # What read queue length does an incoming req see (Count)
system.far_mem_ctrl0.rdQLenPdf::90                  0                       # What read queue length does an incoming req see (Count)
system.far_mem_ctrl0.rdQLenPdf::91                  0                       # What read queue length does an incoming req see (Count)
system.far_mem_ctrl0.rdQLenPdf::92                  0                       # What read queue length does an incoming req see (Count)
system.far_mem_ctrl0.rdQLenPdf::93                  0                       # What read queue length does an incoming req see (Count)
system.far_mem_ctrl0.rdQLenPdf::94                  0                       # What read queue length does an incoming req see (Count)
system.far_mem_ctrl0.rdQLenPdf::95                  0                       # What read queue length does an incoming req see (Count)
system.far_mem_ctrl0.rdQLenPdf::96                  0                       # What read queue length does an incoming req see (Count)
system.far_mem_ctrl0.rdQLenPdf::97                  0                       # What read queue length does an incoming req see (Count)
system.far_mem_ctrl0.rdQLenPdf::98                  0                       # What read queue length does an incoming req see (Count)
system.far_mem_ctrl0.rdQLenPdf::99                  0                       # What read queue length does an incoming req see (Count)
system.far_mem_ctrl0.rdQLenPdf::100                 0                       # What read queue length does an incoming req see (Count)
system.far_mem_ctrl0.rdQLenPdf::101                 0                       # What read queue length does an incoming req see (Count)
system.far_mem_ctrl0.rdQLenPdf::102                 0                       # What read queue length does an incoming req see (Count)
system.far_mem_ctrl0.rdQLenPdf::103                 0                       # What read queue length does an incoming req see (Count)
system.far_mem_ctrl0.rdQLenPdf::104                 0                       # What read queue length does an incoming req see (Count)
system.far_mem_ctrl0.rdQLenPdf::105                 0                       # What read queue length does an incoming req see (Count)
system.far_mem_ctrl0.rdQLenPdf::106                 0                       # What read queue length does an incoming req see (Count)
system.far_mem_ctrl0.rdQLenPdf::107                 0                       # What read queue length does an incoming req see (Count)
system.far_mem_ctrl0.rdQLenPdf::108                 0                       # What read queue length does an incoming req see (Count)
system.far_mem_ctrl0.rdQLenPdf::109                 0                       # What read queue length does an incoming req see (Count)
system.far_mem_ctrl0.rdQLenPdf::110                 0                       # What read queue length does an incoming req see (Count)
system.far_mem_ctrl0.rdQLenPdf::111                 0                       # What read queue length does an incoming req see (Count)
system.far_mem_ctrl0.rdQLenPdf::112                 0                       # What read queue length does an incoming req see (Count)
system.far_mem_ctrl0.rdQLenPdf::113                 0                       # What read queue length does an incoming req see (Count)
system.far_mem_ctrl0.rdQLenPdf::114                 0                       # What read queue length does an incoming req see (Count)
system.far_mem_ctrl0.rdQLenPdf::115                 0                       # What read queue length does an incoming req see (Count)
system.far_mem_ctrl0.rdQLenPdf::116                 0                       # What read queue length does an incoming req see (Count)
system.far_mem_ctrl0.rdQLenPdf::117                 0                       # What read queue length does an incoming req see (Count)
system.far_mem_ctrl0.rdQLenPdf::118                 0                       # What read queue length does an incoming req see (Count)
system.far_mem_ctrl0.rdQLenPdf::119                 0                       # What read queue length does an incoming req see (Count)
system.far_mem_ctrl0.rdQLenPdf::120                 0                       # What read queue length does an incoming req see (Count)
system.far_mem_ctrl0.rdQLenPdf::121                 0                       # What read queue length does an incoming req see (Count)
system.far_mem_ctrl0.rdQLenPdf::122                 0                       # What read queue length does an incoming req see (Count)
system.far_mem_ctrl0.rdQLenPdf::123                 0                       # What read queue length does an incoming req see (Count)
system.far_mem_ctrl0.rdQLenPdf::124                 0                       # What read queue length does an incoming req see (Count)
system.far_mem_ctrl0.rdQLenPdf::125                 0                       # What read queue length does an incoming req see (Count)
system.far_mem_ctrl0.rdQLenPdf::126                 0                       # What read queue length does an incoming req see (Count)
system.far_mem_ctrl0.rdQLenPdf::127                 0                       # What read queue length does an incoming req see (Count)
system.far_mem_ctrl0.wrQLenPdf::0                   0                       # What write queue length does an incoming req see (Count)
system.far_mem_ctrl0.wrQLenPdf::1                   0                       # What write queue length does an incoming req see (Count)
system.far_mem_ctrl0.wrQLenPdf::2                   0                       # What write queue length does an incoming req see (Count)
system.far_mem_ctrl0.wrQLenPdf::3                   0                       # What write queue length does an incoming req see (Count)
system.far_mem_ctrl0.wrQLenPdf::4                   0                       # What write queue length does an incoming req see (Count)
system.far_mem_ctrl0.wrQLenPdf::5                   0                       # What write queue length does an incoming req see (Count)
system.far_mem_ctrl0.wrQLenPdf::6                   0                       # What write queue length does an incoming req see (Count)
system.far_mem_ctrl0.wrQLenPdf::7                   0                       # What write queue length does an incoming req see (Count)
system.far_mem_ctrl0.wrQLenPdf::8                   0                       # What write queue length does an incoming req see (Count)
system.far_mem_ctrl0.wrQLenPdf::9                   0                       # What write queue length does an incoming req see (Count)
system.far_mem_ctrl0.wrQLenPdf::10                  0                       # What write queue length does an incoming req see (Count)
system.far_mem_ctrl0.wrQLenPdf::11                  0                       # What write queue length does an incoming req see (Count)
system.far_mem_ctrl0.wrQLenPdf::12                  0                       # What write queue length does an incoming req see (Count)
system.far_mem_ctrl0.wrQLenPdf::13                  0                       # What write queue length does an incoming req see (Count)
system.far_mem_ctrl0.wrQLenPdf::14                  0                       # What write queue length does an incoming req see (Count)
system.far_mem_ctrl0.wrQLenPdf::15                  0                       # What write queue length does an incoming req see (Count)
system.far_mem_ctrl0.wrQLenPdf::16                  0                       # What write queue length does an incoming req see (Count)
system.far_mem_ctrl0.wrQLenPdf::17                  0                       # What write queue length does an incoming req see (Count)
system.far_mem_ctrl0.wrQLenPdf::18                  0                       # What write queue length does an incoming req see (Count)
system.far_mem_ctrl0.wrQLenPdf::19                  0                       # What write queue length does an incoming req see (Count)
system.far_mem_ctrl0.wrQLenPdf::20                  0                       # What write queue length does an incoming req see (Count)
system.far_mem_ctrl0.wrQLenPdf::21                  0                       # What write queue length does an incoming req see (Count)
system.far_mem_ctrl0.wrQLenPdf::22                  0                       # What write queue length does an incoming req see (Count)
system.far_mem_ctrl0.wrQLenPdf::23                  0                       # What write queue length does an incoming req see (Count)
system.far_mem_ctrl0.wrQLenPdf::24                  0                       # What write queue length does an incoming req see (Count)
system.far_mem_ctrl0.wrQLenPdf::25                  0                       # What write queue length does an incoming req see (Count)
system.far_mem_ctrl0.wrQLenPdf::26                  0                       # What write queue length does an incoming req see (Count)
system.far_mem_ctrl0.wrQLenPdf::27                  0                       # What write queue length does an incoming req see (Count)
system.far_mem_ctrl0.wrQLenPdf::28                  0                       # What write queue length does an incoming req see (Count)
system.far_mem_ctrl0.wrQLenPdf::29                  0                       # What write queue length does an incoming req see (Count)
system.far_mem_ctrl0.wrQLenPdf::30                  0                       # What write queue length does an incoming req see (Count)
system.far_mem_ctrl0.wrQLenPdf::31                  0                       # What write queue length does an incoming req see (Count)
system.far_mem_ctrl0.wrQLenPdf::32                  0                       # What write queue length does an incoming req see (Count)
system.far_mem_ctrl0.wrQLenPdf::33                  0                       # What write queue length does an incoming req see (Count)
system.far_mem_ctrl0.wrQLenPdf::34                  0                       # What write queue length does an incoming req see (Count)
system.far_mem_ctrl0.wrQLenPdf::35                  0                       # What write queue length does an incoming req see (Count)
system.far_mem_ctrl0.wrQLenPdf::36                  0                       # What write queue length does an incoming req see (Count)
system.far_mem_ctrl0.wrQLenPdf::37                  0                       # What write queue length does an incoming req see (Count)
system.far_mem_ctrl0.wrQLenPdf::38                  0                       # What write queue length does an incoming req see (Count)
system.far_mem_ctrl0.wrQLenPdf::39                  0                       # What write queue length does an incoming req see (Count)
system.far_mem_ctrl0.wrQLenPdf::40                  0                       # What write queue length does an incoming req see (Count)
system.far_mem_ctrl0.wrQLenPdf::41                  0                       # What write queue length does an incoming req see (Count)
system.far_mem_ctrl0.wrQLenPdf::42                  0                       # What write queue length does an incoming req see (Count)
system.far_mem_ctrl0.wrQLenPdf::43                  0                       # What write queue length does an incoming req see (Count)
system.far_mem_ctrl0.wrQLenPdf::44                  0                       # What write queue length does an incoming req see (Count)
system.far_mem_ctrl0.wrQLenPdf::45                  0                       # What write queue length does an incoming req see (Count)
system.far_mem_ctrl0.wrQLenPdf::46                  0                       # What write queue length does an incoming req see (Count)
system.far_mem_ctrl0.wrQLenPdf::47                  0                       # What write queue length does an incoming req see (Count)
system.far_mem_ctrl0.wrQLenPdf::48                  0                       # What write queue length does an incoming req see (Count)
system.far_mem_ctrl0.wrQLenPdf::49                  0                       # What write queue length does an incoming req see (Count)
system.far_mem_ctrl0.wrQLenPdf::50                  0                       # What write queue length does an incoming req see (Count)
system.far_mem_ctrl0.wrQLenPdf::51                  0                       # What write queue length does an incoming req see (Count)
system.far_mem_ctrl0.wrQLenPdf::52                  0                       # What write queue length does an incoming req see (Count)
system.far_mem_ctrl0.wrQLenPdf::53                  0                       # What write queue length does an incoming req see (Count)
system.far_mem_ctrl0.wrQLenPdf::54                  0                       # What write queue length does an incoming req see (Count)
system.far_mem_ctrl0.wrQLenPdf::55                  0                       # What write queue length does an incoming req see (Count)
system.far_mem_ctrl0.wrQLenPdf::56                  0                       # What write queue length does an incoming req see (Count)
system.far_mem_ctrl0.wrQLenPdf::57                  0                       # What write queue length does an incoming req see (Count)
system.far_mem_ctrl0.wrQLenPdf::58                  0                       # What write queue length does an incoming req see (Count)
system.far_mem_ctrl0.wrQLenPdf::59                  0                       # What write queue length does an incoming req see (Count)
system.far_mem_ctrl0.wrQLenPdf::60                  0                       # What write queue length does an incoming req see (Count)
system.far_mem_ctrl0.wrQLenPdf::61                  0                       # What write queue length does an incoming req see (Count)
system.far_mem_ctrl0.wrQLenPdf::62                  0                       # What write queue length does an incoming req see (Count)
system.far_mem_ctrl0.wrQLenPdf::63                  0                       # What write queue length does an incoming req see (Count)
system.far_mem_ctrl0.wrQLenPdf::64                  0                       # What write queue length does an incoming req see (Count)
system.far_mem_ctrl0.wrQLenPdf::65                  0                       # What write queue length does an incoming req see (Count)
system.far_mem_ctrl0.wrQLenPdf::66                  0                       # What write queue length does an incoming req see (Count)
system.far_mem_ctrl0.wrQLenPdf::67                  0                       # What write queue length does an incoming req see (Count)
system.far_mem_ctrl0.wrQLenPdf::68                  0                       # What write queue length does an incoming req see (Count)
system.far_mem_ctrl0.wrQLenPdf::69                  0                       # What write queue length does an incoming req see (Count)
system.far_mem_ctrl0.wrQLenPdf::70                  0                       # What write queue length does an incoming req see (Count)
system.far_mem_ctrl0.wrQLenPdf::71                  0                       # What write queue length does an incoming req see (Count)
system.far_mem_ctrl0.wrQLenPdf::72                  0                       # What write queue length does an incoming req see (Count)
system.far_mem_ctrl0.wrQLenPdf::73                  0                       # What write queue length does an incoming req see (Count)
system.far_mem_ctrl0.wrQLenPdf::74                  0                       # What write queue length does an incoming req see (Count)
system.far_mem_ctrl0.wrQLenPdf::75                  0                       # What write queue length does an incoming req see (Count)
system.far_mem_ctrl0.wrQLenPdf::76                  0                       # What write queue length does an incoming req see (Count)
system.far_mem_ctrl0.wrQLenPdf::77                  0                       # What write queue length does an incoming req see (Count)
system.far_mem_ctrl0.wrQLenPdf::78                  0                       # What write queue length does an incoming req see (Count)
system.far_mem_ctrl0.wrQLenPdf::79                  0                       # What write queue length does an incoming req see (Count)
system.far_mem_ctrl0.wrQLenPdf::80                  0                       # What write queue length does an incoming req see (Count)
system.far_mem_ctrl0.wrQLenPdf::81                  0                       # What write queue length does an incoming req see (Count)
system.far_mem_ctrl0.wrQLenPdf::82                  0                       # What write queue length does an incoming req see (Count)
system.far_mem_ctrl0.wrQLenPdf::83                  0                       # What write queue length does an incoming req see (Count)
system.far_mem_ctrl0.wrQLenPdf::84                  0                       # What write queue length does an incoming req see (Count)
system.far_mem_ctrl0.wrQLenPdf::85                  0                       # What write queue length does an incoming req see (Count)
system.far_mem_ctrl0.wrQLenPdf::86                  0                       # What write queue length does an incoming req see (Count)
system.far_mem_ctrl0.wrQLenPdf::87                  0                       # What write queue length does an incoming req see (Count)
system.far_mem_ctrl0.wrQLenPdf::88                  0                       # What write queue length does an incoming req see (Count)
system.far_mem_ctrl0.wrQLenPdf::89                  0                       # What write queue length does an incoming req see (Count)
system.far_mem_ctrl0.wrQLenPdf::90                  0                       # What write queue length does an incoming req see (Count)
system.far_mem_ctrl0.wrQLenPdf::91                  0                       # What write queue length does an incoming req see (Count)
system.far_mem_ctrl0.wrQLenPdf::92                  0                       # What write queue length does an incoming req see (Count)
system.far_mem_ctrl0.wrQLenPdf::93                  0                       # What write queue length does an incoming req see (Count)
system.far_mem_ctrl0.wrQLenPdf::94                  0                       # What write queue length does an incoming req see (Count)
system.far_mem_ctrl0.wrQLenPdf::95                  0                       # What write queue length does an incoming req see (Count)
system.far_mem_ctrl0.wrQLenPdf::96                  0                       # What write queue length does an incoming req see (Count)
system.far_mem_ctrl0.wrQLenPdf::97                  0                       # What write queue length does an incoming req see (Count)
system.far_mem_ctrl0.wrQLenPdf::98                  0                       # What write queue length does an incoming req see (Count)
system.far_mem_ctrl0.wrQLenPdf::99                  0                       # What write queue length does an incoming req see (Count)
system.far_mem_ctrl0.wrQLenPdf::100                 0                       # What write queue length does an incoming req see (Count)
system.far_mem_ctrl0.wrQLenPdf::101                 0                       # What write queue length does an incoming req see (Count)
system.far_mem_ctrl0.wrQLenPdf::102                 0                       # What write queue length does an incoming req see (Count)
system.far_mem_ctrl0.wrQLenPdf::103                 0                       # What write queue length does an incoming req see (Count)
system.far_mem_ctrl0.wrQLenPdf::104                 0                       # What write queue length does an incoming req see (Count)
system.far_mem_ctrl0.wrQLenPdf::105                 0                       # What write queue length does an incoming req see (Count)
system.far_mem_ctrl0.wrQLenPdf::106                 0                       # What write queue length does an incoming req see (Count)
system.far_mem_ctrl0.wrQLenPdf::107                 0                       # What write queue length does an incoming req see (Count)
system.far_mem_ctrl0.wrQLenPdf::108                 0                       # What write queue length does an incoming req see (Count)
system.far_mem_ctrl0.wrQLenPdf::109                 0                       # What write queue length does an incoming req see (Count)
system.far_mem_ctrl0.wrQLenPdf::110                 0                       # What write queue length does an incoming req see (Count)
system.far_mem_ctrl0.wrQLenPdf::111                 0                       # What write queue length does an incoming req see (Count)
system.far_mem_ctrl0.wrQLenPdf::112                 0                       # What write queue length does an incoming req see (Count)
system.far_mem_ctrl0.wrQLenPdf::113                 0                       # What write queue length does an incoming req see (Count)
system.far_mem_ctrl0.wrQLenPdf::114                 0                       # What write queue length does an incoming req see (Count)
system.far_mem_ctrl0.wrQLenPdf::115                 0                       # What write queue length does an incoming req see (Count)
system.far_mem_ctrl0.wrQLenPdf::116                 0                       # What write queue length does an incoming req see (Count)
system.far_mem_ctrl0.wrQLenPdf::117                 0                       # What write queue length does an incoming req see (Count)
system.far_mem_ctrl0.wrQLenPdf::118                 0                       # What write queue length does an incoming req see (Count)
system.far_mem_ctrl0.wrQLenPdf::119                 0                       # What write queue length does an incoming req see (Count)
system.far_mem_ctrl0.wrQLenPdf::120                 0                       # What write queue length does an incoming req see (Count)
system.far_mem_ctrl0.wrQLenPdf::121                 0                       # What write queue length does an incoming req see (Count)
system.far_mem_ctrl0.wrQLenPdf::122                 0                       # What write queue length does an incoming req see (Count)
system.far_mem_ctrl0.wrQLenPdf::123                 0                       # What write queue length does an incoming req see (Count)
system.far_mem_ctrl0.wrQLenPdf::124                 0                       # What write queue length does an incoming req see (Count)
system.far_mem_ctrl0.wrQLenPdf::125                 0                       # What write queue length does an incoming req see (Count)
system.far_mem_ctrl0.wrQLenPdf::126                 0                       # What write queue length does an incoming req see (Count)
system.far_mem_ctrl0.wrQLenPdf::127                 0                       # What write queue length does an incoming req see (Count)
system.far_mem_ctrl0.bytesReadWrQ                   0                       # Total number of bytes read from write queue (Byte)
system.far_mem_ctrl0.bytesReadSys              365696                       # Total read bytes from the system interface side (Byte)
system.far_mem_ctrl0.bytesWrittenSys                0                       # Total written bytes from the system interface side (Byte)
system.far_mem_ctrl0.avgRdBWSys          3656413000.61510801                       # Average system read bandwidth in Byte/s ((Byte/Second))
system.far_mem_ctrl0.avgWrBWSys            0.00000000                       # Average system write bandwidth in Byte/s ((Byte/Second))
system.far_mem_ctrl0.totGap                  99868920                       # Total gap between requests (Tick)
system.far_mem_ctrl0.avgGap                  17477.93                       # Average gap between requests ((Tick/Count))
system.far_mem_ctrl0.requestorReadBytes::writebacks       364544                       # Per-requestor bytes read from memory (Byte)
system.far_mem_ctrl0.requestorReadRate::writebacks 3644894723.749327182770                       # Per-requestor bytes read from memory rate ((Byte/Second))
system.far_mem_ctrl0.requestorReadAccesses::writebacks         5714                       # Per-requestor read serviced memory accesses (Count)
system.far_mem_ctrl0.requestorReadTotalLat::writebacks   1445385504                       # Per-requestor read total memory access latency (Tick)
system.far_mem_ctrl0.requestorReadAvgLat::writebacks    252955.11                       # Per-requestor read average memory access latency ((Tick/Count))
system.far_mem_ctrl0.dram.bytesRead::writebacks       364416                       # Number of bytes read from this memory (Byte)
system.far_mem_ctrl0.dram.bytesRead::total       364416                       # Number of bytes read from this memory (Byte)
system.far_mem_ctrl0.dram.numReads::writebacks         5694                       # Number of read requests responded to by this memory (Count)
system.far_mem_ctrl0.dram.numReads::total         5694                       # Number of read requests responded to by this memory (Count)
system.far_mem_ctrl0.dram.bwRead::writebacks   3643614915                       # Total read bandwidth from this memory ((Byte/Second))
system.far_mem_ctrl0.dram.bwRead::total    3643614915                       # Total read bandwidth from this memory ((Byte/Second))
system.far_mem_ctrl0.dram.bwTotal::writebacks   3643614915                       # Total bandwidth to/from this memory ((Byte/Second))
system.far_mem_ctrl0.dram.bwTotal::total   3643614915                       # Total bandwidth to/from this memory ((Byte/Second))
system.far_mem_ctrl0.dram.readBursts             5696                       # Number of NVM read bursts (Count)
system.far_mem_ctrl0.dram.writeBursts               0                       # Number of NVM write bursts (Count)
system.far_mem_ctrl0.dram.perBankRdBursts::0          354                       # Per bank write bursts (Count)
system.far_mem_ctrl0.dram.perBankRdBursts::1          376                       # Per bank write bursts (Count)
system.far_mem_ctrl0.dram.perBankRdBursts::2          337                       # Per bank write bursts (Count)
system.far_mem_ctrl0.dram.perBankRdBursts::3          355                       # Per bank write bursts (Count)
system.far_mem_ctrl0.dram.perBankRdBursts::4          351                       # Per bank write bursts (Count)
system.far_mem_ctrl0.dram.perBankRdBursts::5          354                       # Per bank write bursts (Count)
system.far_mem_ctrl0.dram.perBankRdBursts::6          359                       # Per bank write bursts (Count)
system.far_mem_ctrl0.dram.perBankRdBursts::7          344                       # Per bank write bursts (Count)
system.far_mem_ctrl0.dram.perBankRdBursts::8          346                       # Per bank write bursts (Count)
system.far_mem_ctrl0.dram.perBankRdBursts::9          361                       # Per bank write bursts (Count)
system.far_mem_ctrl0.dram.perBankRdBursts::10          374                       # Per bank write bursts (Count)
system.far_mem_ctrl0.dram.perBankRdBursts::11          344                       # Per bank write bursts (Count)
system.far_mem_ctrl0.dram.perBankRdBursts::12          356                       # Per bank write bursts (Count)
system.far_mem_ctrl0.dram.perBankRdBursts::13          388                       # Per bank write bursts (Count)
system.far_mem_ctrl0.dram.perBankRdBursts::14          319                       # Per bank write bursts (Count)
system.far_mem_ctrl0.dram.perBankRdBursts::15          378                       # Per bank write bursts (Count)
system.far_mem_ctrl0.dram.perBankWrBursts::0            0                       # Per bank write bursts (Count)
system.far_mem_ctrl0.dram.perBankWrBursts::1            0                       # Per bank write bursts (Count)
system.far_mem_ctrl0.dram.perBankWrBursts::2            0                       # Per bank write bursts (Count)
system.far_mem_ctrl0.dram.perBankWrBursts::3            0                       # Per bank write bursts (Count)
system.far_mem_ctrl0.dram.perBankWrBursts::4            0                       # Per bank write bursts (Count)
system.far_mem_ctrl0.dram.perBankWrBursts::5            0                       # Per bank write bursts (Count)
system.far_mem_ctrl0.dram.perBankWrBursts::6            0                       # Per bank write bursts (Count)
system.far_mem_ctrl0.dram.perBankWrBursts::7            0                       # Per bank write bursts (Count)
system.far_mem_ctrl0.dram.perBankWrBursts::8            0                       # Per bank write bursts (Count)
system.far_mem_ctrl0.dram.perBankWrBursts::9            0                       # Per bank write bursts (Count)
system.far_mem_ctrl0.dram.perBankWrBursts::10            0                       # Per bank write bursts (Count)
system.far_mem_ctrl0.dram.perBankWrBursts::11            0                       # Per bank write bursts (Count)
system.far_mem_ctrl0.dram.perBankWrBursts::12            0                       # Per bank write bursts (Count)
system.far_mem_ctrl0.dram.perBankWrBursts::13            0                       # Per bank write bursts (Count)
system.far_mem_ctrl0.dram.perBankWrBursts::14            0                       # Per bank write bursts (Count)
system.far_mem_ctrl0.dram.perBankWrBursts::15            0                       # Per bank write bursts (Count)
system.far_mem_ctrl0.dram.totQLat          1345751072                       # Total ticks spent queuing (Tick)
system.far_mem_ctrl0.dram.totBusLat          18979072                       # Total ticks spent in databus transfers (Tick)
system.far_mem_ctrl0.dram.totMemAccLat     1445385504                       # Total ticks spent from burst creation until serviced by the NVM (Tick)
system.far_mem_ctrl0.dram.avgQLat           236262.48                       # Average queueing delay per NVM burst ((Tick/Count))
system.far_mem_ctrl0.dram.avgBusLat           3332.00                       # Average bus latency per NVM burst ((Tick/Count))
system.far_mem_ctrl0.dram.avgMemAccLat      253754.48                       # Average memory access latency per NVM burst ((Tick/Count))
system.far_mem_ctrl0.dram.avgRdBW             3644.89                       # Average DRAM read bandwidth in MiBytes/s ((Byte/Second))
system.far_mem_ctrl0.dram.avgWrBW                0.00                       # Average DRAM write bandwidth in MiBytes/s ((Byte/Second))
system.far_mem_ctrl0.dram.peakBW             19207.00                       # Theoretical peak bandwidth in MiByte/s ((Byte/Second))
system.far_mem_ctrl0.dram.busUtil               18.98                       # NVM Data bus utilization in percentage (Ratio)
system.far_mem_ctrl0.dram.busUtilRead           18.98                       # NVM Data bus read utilization in percentage (Ratio)
system.far_mem_ctrl0.dram.busUtilWrite           0.00                       # NVM Data bus write utilization in percentage (Ratio)
system.far_mem_ctrl0.dram.pendingReads::samples         5696                       # Reads issued to NVM for which data has not been transferred (Count)
system.far_mem_ctrl0.dram.pendingReads::mean    13.310218                       # Reads issued to NVM for which data has not been transferred (Count)
system.far_mem_ctrl0.dram.pendingReads::stdev     5.266770                       # Reads issued to NVM for which data has not been transferred (Count)
system.far_mem_ctrl0.dram.pendingReads::0            5      0.09%      0.09% # Reads issued to NVM for which data has not been transferred (Count)
system.far_mem_ctrl0.dram.pendingReads::1           14      0.25%      0.33% # Reads issued to NVM for which data has not been transferred (Count)
system.far_mem_ctrl0.dram.pendingReads::2           17      0.30%      0.63% # Reads issued to NVM for which data has not been transferred (Count)
system.far_mem_ctrl0.dram.pendingReads::3           28      0.49%      1.12% # Reads issued to NVM for which data has not been transferred (Count)
system.far_mem_ctrl0.dram.pendingReads::4           48      0.84%      1.97% # Reads issued to NVM for which data has not been transferred (Count)
system.far_mem_ctrl0.dram.pendingReads::5           79      1.39%      3.35% # Reads issued to NVM for which data has not been transferred (Count)
system.far_mem_ctrl0.dram.pendingReads::6          158      2.77%      6.13% # Reads issued to NVM for which data has not been transferred (Count)
system.far_mem_ctrl0.dram.pendingReads::7          231      4.06%     10.18% # Reads issued to NVM for which data has not been transferred (Count)
system.far_mem_ctrl0.dram.pendingReads::8          287      5.04%     15.22% # Reads issued to NVM for which data has not been transferred (Count)
system.far_mem_ctrl0.dram.pendingReads::9          348      6.11%     21.33% # Reads issued to NVM for which data has not been transferred (Count)
system.far_mem_ctrl0.dram.pendingReads::10          393      6.90%     28.23% # Reads issued to NVM for which data has not been transferred (Count)
system.far_mem_ctrl0.dram.pendingReads::11          453      7.95%     36.18% # Reads issued to NVM for which data has not been transferred (Count)
system.far_mem_ctrl0.dram.pendingReads::12          480      8.43%     44.61% # Reads issued to NVM for which data has not been transferred (Count)
system.far_mem_ctrl0.dram.pendingReads::13          502      8.81%     53.42% # Reads issued to NVM for which data has not been transferred (Count)
system.far_mem_ctrl0.dram.pendingReads::14          521      9.15%     62.57% # Reads issued to NVM for which data has not been transferred (Count)
system.far_mem_ctrl0.dram.pendingReads::15          528      9.27%     71.84% # Reads issued to NVM for which data has not been transferred (Count)
system.far_mem_ctrl0.dram.pendingReads::16          458      8.04%     79.88% # Reads issued to NVM for which data has not been transferred (Count)
system.far_mem_ctrl0.dram.pendingReads::17          352      6.18%     86.06% # Reads issued to NVM for which data has not been transferred (Count)
system.far_mem_ctrl0.dram.pendingReads::18          252      4.42%     90.48% # Reads issued to NVM for which data has not been transferred (Count)
system.far_mem_ctrl0.dram.pendingReads::19          168      2.95%     93.43% # Reads issued to NVM for which data has not been transferred (Count)
system.far_mem_ctrl0.dram.pendingReads::20          101      1.77%     95.21% # Reads issued to NVM for which data has not been transferred (Count)
system.far_mem_ctrl0.dram.pendingReads::21           65      1.14%     96.35% # Reads issued to NVM for which data has not been transferred (Count)
system.far_mem_ctrl0.dram.pendingReads::22           36      0.63%     96.98% # Reads issued to NVM for which data has not been transferred (Count)
system.far_mem_ctrl0.dram.pendingReads::23           21      0.37%     97.35% # Reads issued to NVM for which data has not been transferred (Count)
system.far_mem_ctrl0.dram.pendingReads::24           11      0.19%     97.54% # Reads issued to NVM for which data has not been transferred (Count)
system.far_mem_ctrl0.dram.pendingReads::25           14      0.25%     97.79% # Reads issued to NVM for which data has not been transferred (Count)
system.far_mem_ctrl0.dram.pendingReads::26           11      0.19%     97.98% # Reads issued to NVM for which data has not been transferred (Count)
system.far_mem_ctrl0.dram.pendingReads::27            6      0.11%     98.09% # Reads issued to NVM for which data has not been transferred (Count)
system.far_mem_ctrl0.dram.pendingReads::28            8      0.14%     98.23% # Reads issued to NVM for which data has not been transferred (Count)
system.far_mem_ctrl0.dram.pendingReads::29           12      0.21%     98.44% # Reads issued to NVM for which data has not been transferred (Count)
system.far_mem_ctrl0.dram.pendingReads::30           10      0.18%     98.61% # Reads issued to NVM for which data has not been transferred (Count)
system.far_mem_ctrl0.dram.pendingReads::31            8      0.14%     98.75% # Reads issued to NVM for which data has not been transferred (Count)
system.far_mem_ctrl0.dram.pendingReads::32            5      0.09%     98.84% # Reads issued to NVM for which data has not been transferred (Count)
system.far_mem_ctrl0.dram.pendingReads::33            2      0.04%     98.88% # Reads issued to NVM for which data has not been transferred (Count)
system.far_mem_ctrl0.dram.pendingReads::34            3      0.05%     98.93% # Reads issued to NVM for which data has not been transferred (Count)
system.far_mem_ctrl0.dram.pendingReads::35            7      0.12%     99.05% # Reads issued to NVM for which data has not been transferred (Count)
system.far_mem_ctrl0.dram.pendingReads::36            7      0.12%     99.17% # Reads issued to NVM for which data has not been transferred (Count)
system.far_mem_ctrl0.dram.pendingReads::37            6      0.11%     99.28% # Reads issued to NVM for which data has not been transferred (Count)
system.far_mem_ctrl0.dram.pendingReads::38            5      0.09%     99.37% # Reads issued to NVM for which data has not been transferred (Count)
system.far_mem_ctrl0.dram.pendingReads::39            3      0.05%     99.42% # Reads issued to NVM for which data has not been transferred (Count)
system.far_mem_ctrl0.dram.pendingReads::40            2      0.04%     99.46% # Reads issued to NVM for which data has not been transferred (Count)
system.far_mem_ctrl0.dram.pendingReads::41            3      0.05%     99.51% # Reads issued to NVM for which data has not been transferred (Count)
system.far_mem_ctrl0.dram.pendingReads::42            3      0.05%     99.56% # Reads issued to NVM for which data has not been transferred (Count)
system.far_mem_ctrl0.dram.pendingReads::43            6      0.11%     99.67% # Reads issued to NVM for which data has not been transferred (Count)
system.far_mem_ctrl0.dram.pendingReads::44            6      0.11%     99.77% # Reads issued to NVM for which data has not been transferred (Count)
system.far_mem_ctrl0.dram.pendingReads::45            4      0.07%     99.84% # Reads issued to NVM for which data has not been transferred (Count)
system.far_mem_ctrl0.dram.pendingReads::46            3      0.05%     99.89% # Reads issued to NVM for which data has not been transferred (Count)
system.far_mem_ctrl0.dram.pendingReads::47            3      0.05%     99.95% # Reads issued to NVM for which data has not been transferred (Count)
system.far_mem_ctrl0.dram.pendingReads::48            3      0.05%    100.00% # Reads issued to NVM for which data has not been transferred (Count)
system.far_mem_ctrl0.dram.pendingReads::total         5696                       # Reads issued to NVM for which data has not been transferred (Count)
system.far_mem_ctrl0.dram.bytesPerBank::samples         5714                       # Bytes read within a bank before loading new bank (Byte)
system.far_mem_ctrl0.dram.bytesPerBank::mean           64                       # Bytes read within a bank before loading new bank (Byte)
system.far_mem_ctrl0.dram.bytesPerBank::gmean    64.000000                       # Bytes read within a bank before loading new bank (Byte)
system.far_mem_ctrl0.dram.bytesPerBank::64         5714    100.00%    100.00% # Bytes read within a bank before loading new bank (Byte)
system.far_mem_ctrl0.dram.bytesPerBank::total         5714                       # Bytes read within a bank before loading new bank (Byte)
system.far_mem_ctrl0.dram.power_state.pwrStateResidencyTicks::UNDEFINED    100014960                       # Cumulative time (in ticks) in various power states (Tick)
system.far_mem_ctrl0.power_state.pwrStateResidencyTicks::UNDEFINED    100014960                       # Cumulative time (in ticks) in various power states (Tick)
system.far_mem_ctrl1.avgPriority_writebacks::samples      5755.00                       # Average QoS priority value for accepted requests (Count)
system.far_mem_ctrl1.priorityMinLatency  0.000000317492                       # per QoS priority minimum request to response latency (Second)
system.far_mem_ctrl1.priorityMaxLatency  0.000002175492                       # per QoS priority maximum request to response latency (Second)
system.far_mem_ctrl1.numReadWriteTurnArounds            0                       # Number of turnarounds from READ to WRITE (Count)
system.far_mem_ctrl1.numWriteReadTurnArounds            0                       # Number of turnarounds from WRITE to READ (Count)
system.far_mem_ctrl1.numStayReadState           17166                       # Number of times bus staying in READ state (Count)
system.far_mem_ctrl1.numStayWriteState              0                       # Number of times bus staying in WRITE state (Count)
system.far_mem_ctrl1.readReqs                    5755                       # Number of read requests accepted (Count)
system.far_mem_ctrl1.writeReqs                      0                       # Number of write requests accepted (Count)
system.far_mem_ctrl1.readBursts                  5755                       # Number of controller read bursts, including those serviced by the write queue (Count)
system.far_mem_ctrl1.writeBursts                    0                       # Number of controller write bursts, including those merged in the write queue (Count)
system.far_mem_ctrl1.servicedByWrQ                  0                       # Number of controller read bursts serviced by the write queue (Count)
system.far_mem_ctrl1.mergedWrBursts                 0                       # Number of controller write bursts merged with an existing one (Count)
system.far_mem_ctrl1.neitherReadNorWriteReqs            0                       # Number of requests that are neither read nor write (Count)
system.far_mem_ctrl1.avgRdQLen                  17.79                       # Average read queue length when enqueuing ((Count/Tick))
system.far_mem_ctrl1.avgWrQLen                   0.00                       # Average write queue length when enqueuing ((Count/Tick))
system.far_mem_ctrl1.numRdRetry                     0                       # Number of times read queue was full causing retry (Count)
system.far_mem_ctrl1.numWrRetry                     0                       # Number of times write queue was full causing retry (Count)
system.far_mem_ctrl1.readPktSize::0                 0                       # Read request sizes (log2) (Count)
system.far_mem_ctrl1.readPktSize::1                 0                       # Read request sizes (log2) (Count)
system.far_mem_ctrl1.readPktSize::2                 0                       # Read request sizes (log2) (Count)
system.far_mem_ctrl1.readPktSize::3                 0                       # Read request sizes (log2) (Count)
system.far_mem_ctrl1.readPktSize::4                 0                       # Read request sizes (log2) (Count)
system.far_mem_ctrl1.readPktSize::5                 0                       # Read request sizes (log2) (Count)
system.far_mem_ctrl1.readPktSize::6              5755                       # Read request sizes (log2) (Count)
system.far_mem_ctrl1.writePktSize::0                0                       # Write request sizes (log2) (Count)
system.far_mem_ctrl1.writePktSize::1                0                       # Write request sizes (log2) (Count)
system.far_mem_ctrl1.writePktSize::2                0                       # Write request sizes (log2) (Count)
system.far_mem_ctrl1.writePktSize::3                0                       # Write request sizes (log2) (Count)
system.far_mem_ctrl1.writePktSize::4                0                       # Write request sizes (log2) (Count)
system.far_mem_ctrl1.writePktSize::5                0                       # Write request sizes (log2) (Count)
system.far_mem_ctrl1.writePktSize::6                0                       # Write request sizes (log2) (Count)
system.far_mem_ctrl1.rdQLenPdf::0                   2                       # What read queue length does an incoming req see (Count)
system.far_mem_ctrl1.rdQLenPdf::1                   7                       # What read queue length does an incoming req see (Count)
system.far_mem_ctrl1.rdQLenPdf::2                  15                       # What read queue length does an incoming req see (Count)
system.far_mem_ctrl1.rdQLenPdf::3                  26                       # What read queue length does an incoming req see (Count)
system.far_mem_ctrl1.rdQLenPdf::4                  33                       # What read queue length does an incoming req see (Count)
system.far_mem_ctrl1.rdQLenPdf::5                  54                       # What read queue length does an incoming req see (Count)
system.far_mem_ctrl1.rdQLenPdf::6                 104                       # What read queue length does an incoming req see (Count)
system.far_mem_ctrl1.rdQLenPdf::7                 177                       # What read queue length does an incoming req see (Count)
system.far_mem_ctrl1.rdQLenPdf::8                 248                       # What read queue length does an incoming req see (Count)
system.far_mem_ctrl1.rdQLenPdf::9                 311                       # What read queue length does an incoming req see (Count)
system.far_mem_ctrl1.rdQLenPdf::10                394                       # What read queue length does an incoming req see (Count)
system.far_mem_ctrl1.rdQLenPdf::11                401                       # What read queue length does an incoming req see (Count)
system.far_mem_ctrl1.rdQLenPdf::12                430                       # What read queue length does an incoming req see (Count)
system.far_mem_ctrl1.rdQLenPdf::13                493                       # What read queue length does an incoming req see (Count)
system.far_mem_ctrl1.rdQLenPdf::14                488                       # What read queue length does an incoming req see (Count)
system.far_mem_ctrl1.rdQLenPdf::15                544                       # What read queue length does an incoming req see (Count)
system.far_mem_ctrl1.rdQLenPdf::16                524                       # What read queue length does an incoming req see (Count)
system.far_mem_ctrl1.rdQLenPdf::17                436                       # What read queue length does an incoming req see (Count)
system.far_mem_ctrl1.rdQLenPdf::18                366                       # What read queue length does an incoming req see (Count)
system.far_mem_ctrl1.rdQLenPdf::19                270                       # What read queue length does an incoming req see (Count)
system.far_mem_ctrl1.rdQLenPdf::20                159                       # What read queue length does an incoming req see (Count)
system.far_mem_ctrl1.rdQLenPdf::21                 89                       # What read queue length does an incoming req see (Count)
system.far_mem_ctrl1.rdQLenPdf::22                 46                       # What read queue length does an incoming req see (Count)
system.far_mem_ctrl1.rdQLenPdf::23                 11                       # What read queue length does an incoming req see (Count)
system.far_mem_ctrl1.rdQLenPdf::24                  7                       # What read queue length does an incoming req see (Count)
system.far_mem_ctrl1.rdQLenPdf::25                  5                       # What read queue length does an incoming req see (Count)
system.far_mem_ctrl1.rdQLenPdf::26                  5                       # What read queue length does an incoming req see (Count)
system.far_mem_ctrl1.rdQLenPdf::27                  6                       # What read queue length does an incoming req see (Count)
system.far_mem_ctrl1.rdQLenPdf::28                  6                       # What read queue length does an incoming req see (Count)
system.far_mem_ctrl1.rdQLenPdf::29                  6                       # What read queue length does an incoming req see (Count)
system.far_mem_ctrl1.rdQLenPdf::30                  7                       # What read queue length does an incoming req see (Count)
system.far_mem_ctrl1.rdQLenPdf::31                  4                       # What read queue length does an incoming req see (Count)
system.far_mem_ctrl1.rdQLenPdf::32                  2                       # What read queue length does an incoming req see (Count)
system.far_mem_ctrl1.rdQLenPdf::33                  3                       # What read queue length does an incoming req see (Count)
system.far_mem_ctrl1.rdQLenPdf::34                  3                       # What read queue length does an incoming req see (Count)
system.far_mem_ctrl1.rdQLenPdf::35                  6                       # What read queue length does an incoming req see (Count)
system.far_mem_ctrl1.rdQLenPdf::36                  9                       # What read queue length does an incoming req see (Count)
system.far_mem_ctrl1.rdQLenPdf::37                  7                       # What read queue length does an incoming req see (Count)
system.far_mem_ctrl1.rdQLenPdf::38                  3                       # What read queue length does an incoming req see (Count)
system.far_mem_ctrl1.rdQLenPdf::39                  4                       # What read queue length does an incoming req see (Count)
system.far_mem_ctrl1.rdQLenPdf::40                  3                       # What read queue length does an incoming req see (Count)
system.far_mem_ctrl1.rdQLenPdf::41                  4                       # What read queue length does an incoming req see (Count)
system.far_mem_ctrl1.rdQLenPdf::42                  5                       # What read queue length does an incoming req see (Count)
system.far_mem_ctrl1.rdQLenPdf::43                  6                       # What read queue length does an incoming req see (Count)
system.far_mem_ctrl1.rdQLenPdf::44                  2                       # What read queue length does an incoming req see (Count)
system.far_mem_ctrl1.rdQLenPdf::45                  5                       # What read queue length does an incoming req see (Count)
system.far_mem_ctrl1.rdQLenPdf::46                  5                       # What read queue length does an incoming req see (Count)
system.far_mem_ctrl1.rdQLenPdf::47                  8                       # What read queue length does an incoming req see (Count)
system.far_mem_ctrl1.rdQLenPdf::48                  1                       # What read queue length does an incoming req see (Count)
system.far_mem_ctrl1.rdQLenPdf::49                  3                       # What read queue length does an incoming req see (Count)
system.far_mem_ctrl1.rdQLenPdf::50                  2                       # What read queue length does an incoming req see (Count)
system.far_mem_ctrl1.rdQLenPdf::51                  0                       # What read queue length does an incoming req see (Count)
system.far_mem_ctrl1.rdQLenPdf::52                  0                       # What read queue length does an incoming req see (Count)
system.far_mem_ctrl1.rdQLenPdf::53                  0                       # What read queue length does an incoming req see (Count)
system.far_mem_ctrl1.rdQLenPdf::54                  0                       # What read queue length does an incoming req see (Count)
system.far_mem_ctrl1.rdQLenPdf::55                  0                       # What read queue length does an incoming req see (Count)
system.far_mem_ctrl1.rdQLenPdf::56                  0                       # What read queue length does an incoming req see (Count)
system.far_mem_ctrl1.rdQLenPdf::57                  0                       # What read queue length does an incoming req see (Count)
system.far_mem_ctrl1.rdQLenPdf::58                  0                       # What read queue length does an incoming req see (Count)
system.far_mem_ctrl1.rdQLenPdf::59                  0                       # What read queue length does an incoming req see (Count)
system.far_mem_ctrl1.rdQLenPdf::60                  0                       # What read queue length does an incoming req see (Count)
system.far_mem_ctrl1.rdQLenPdf::61                  0                       # What read queue length does an incoming req see (Count)
system.far_mem_ctrl1.rdQLenPdf::62                  0                       # What read queue length does an incoming req see (Count)
system.far_mem_ctrl1.rdQLenPdf::63                  0                       # What read queue length does an incoming req see (Count)
system.far_mem_ctrl1.rdQLenPdf::64                  0                       # What read queue length does an incoming req see (Count)
system.far_mem_ctrl1.rdQLenPdf::65                  0                       # What read queue length does an incoming req see (Count)
system.far_mem_ctrl1.rdQLenPdf::66                  0                       # What read queue length does an incoming req see (Count)
system.far_mem_ctrl1.rdQLenPdf::67                  0                       # What read queue length does an incoming req see (Count)
system.far_mem_ctrl1.rdQLenPdf::68                  0                       # What read queue length does an incoming req see (Count)
system.far_mem_ctrl1.rdQLenPdf::69                  0                       # What read queue length does an incoming req see (Count)
system.far_mem_ctrl1.rdQLenPdf::70                  0                       # What read queue length does an incoming req see (Count)
system.far_mem_ctrl1.rdQLenPdf::71                  0                       # What read queue length does an incoming req see (Count)
system.far_mem_ctrl1.rdQLenPdf::72                  0                       # What read queue length does an incoming req see (Count)
system.far_mem_ctrl1.rdQLenPdf::73                  0                       # What read queue length does an incoming req see (Count)
system.far_mem_ctrl1.rdQLenPdf::74                  0                       # What read queue length does an incoming req see (Count)
system.far_mem_ctrl1.rdQLenPdf::75                  0                       # What read queue length does an incoming req see (Count)
system.far_mem_ctrl1.rdQLenPdf::76                  0                       # What read queue length does an incoming req see (Count)
system.far_mem_ctrl1.rdQLenPdf::77                  0                       # What read queue length does an incoming req see (Count)
system.far_mem_ctrl1.rdQLenPdf::78                  0                       # What read queue length does an incoming req see (Count)
system.far_mem_ctrl1.rdQLenPdf::79                  0                       # What read queue length does an incoming req see (Count)
system.far_mem_ctrl1.rdQLenPdf::80                  0                       # What read queue length does an incoming req see (Count)
system.far_mem_ctrl1.rdQLenPdf::81                  0                       # What read queue length does an incoming req see (Count)
system.far_mem_ctrl1.rdQLenPdf::82                  0                       # What read queue length does an incoming req see (Count)
system.far_mem_ctrl1.rdQLenPdf::83                  0                       # What read queue length does an incoming req see (Count)
system.far_mem_ctrl1.rdQLenPdf::84                  0                       # What read queue length does an incoming req see (Count)
system.far_mem_ctrl1.rdQLenPdf::85                  0                       # What read queue length does an incoming req see (Count)
system.far_mem_ctrl1.rdQLenPdf::86                  0                       # What read queue length does an incoming req see (Count)
system.far_mem_ctrl1.rdQLenPdf::87                  0                       # What read queue length does an incoming req see (Count)
system.far_mem_ctrl1.rdQLenPdf::88                  0                       # What read queue length does an incoming req see (Count)
system.far_mem_ctrl1.rdQLenPdf::89                  0                       # What read queue length does an incoming req see (Count)
system.far_mem_ctrl1.rdQLenPdf::90                  0                       # What read queue length does an incoming req see (Count)
system.far_mem_ctrl1.rdQLenPdf::91                  0                       # What read queue length does an incoming req see (Count)
system.far_mem_ctrl1.rdQLenPdf::92                  0                       # What read queue length does an incoming req see (Count)
system.far_mem_ctrl1.rdQLenPdf::93                  0                       # What read queue length does an incoming req see (Count)
system.far_mem_ctrl1.rdQLenPdf::94                  0                       # What read queue length does an incoming req see (Count)
system.far_mem_ctrl1.rdQLenPdf::95                  0                       # What read queue length does an incoming req see (Count)
system.far_mem_ctrl1.rdQLenPdf::96                  0                       # What read queue length does an incoming req see (Count)
system.far_mem_ctrl1.rdQLenPdf::97                  0                       # What read queue length does an incoming req see (Count)
system.far_mem_ctrl1.rdQLenPdf::98                  0                       # What read queue length does an incoming req see (Count)
system.far_mem_ctrl1.rdQLenPdf::99                  0                       # What read queue length does an incoming req see (Count)
system.far_mem_ctrl1.rdQLenPdf::100                 0                       # What read queue length does an incoming req see (Count)
system.far_mem_ctrl1.rdQLenPdf::101                 0                       # What read queue length does an incoming req see (Count)
system.far_mem_ctrl1.rdQLenPdf::102                 0                       # What read queue length does an incoming req see (Count)
system.far_mem_ctrl1.rdQLenPdf::103                 0                       # What read queue length does an incoming req see (Count)
system.far_mem_ctrl1.rdQLenPdf::104                 0                       # What read queue length does an incoming req see (Count)
system.far_mem_ctrl1.rdQLenPdf::105                 0                       # What read queue length does an incoming req see (Count)
system.far_mem_ctrl1.rdQLenPdf::106                 0                       # What read queue length does an incoming req see (Count)
system.far_mem_ctrl1.rdQLenPdf::107                 0                       # What read queue length does an incoming req see (Count)
system.far_mem_ctrl1.rdQLenPdf::108                 0                       # What read queue length does an incoming req see (Count)
system.far_mem_ctrl1.rdQLenPdf::109                 0                       # What read queue length does an incoming req see (Count)
system.far_mem_ctrl1.rdQLenPdf::110                 0                       # What read queue length does an incoming req see (Count)
system.far_mem_ctrl1.rdQLenPdf::111                 0                       # What read queue length does an incoming req see (Count)
system.far_mem_ctrl1.rdQLenPdf::112                 0                       # What read queue length does an incoming req see (Count)
system.far_mem_ctrl1.rdQLenPdf::113                 0                       # What read queue length does an incoming req see (Count)
system.far_mem_ctrl1.rdQLenPdf::114                 0                       # What read queue length does an incoming req see (Count)
system.far_mem_ctrl1.rdQLenPdf::115                 0                       # What read queue length does an incoming req see (Count)
system.far_mem_ctrl1.rdQLenPdf::116                 0                       # What read queue length does an incoming req see (Count)
system.far_mem_ctrl1.rdQLenPdf::117                 0                       # What read queue length does an incoming req see (Count)
system.far_mem_ctrl1.rdQLenPdf::118                 0                       # What read queue length does an incoming req see (Count)
system.far_mem_ctrl1.rdQLenPdf::119                 0                       # What read queue length does an incoming req see (Count)
system.far_mem_ctrl1.rdQLenPdf::120                 0                       # What read queue length does an incoming req see (Count)
system.far_mem_ctrl1.rdQLenPdf::121                 0                       # What read queue length does an incoming req see (Count)
system.far_mem_ctrl1.rdQLenPdf::122                 0                       # What read queue length does an incoming req see (Count)
system.far_mem_ctrl1.rdQLenPdf::123                 0                       # What read queue length does an incoming req see (Count)
system.far_mem_ctrl1.rdQLenPdf::124                 0                       # What read queue length does an incoming req see (Count)
system.far_mem_ctrl1.rdQLenPdf::125                 0                       # What read queue length does an incoming req see (Count)
system.far_mem_ctrl1.rdQLenPdf::126                 0                       # What read queue length does an incoming req see (Count)
system.far_mem_ctrl1.rdQLenPdf::127                 0                       # What read queue length does an incoming req see (Count)
system.far_mem_ctrl1.wrQLenPdf::0                   0                       # What write queue length does an incoming req see (Count)
system.far_mem_ctrl1.wrQLenPdf::1                   0                       # What write queue length does an incoming req see (Count)
system.far_mem_ctrl1.wrQLenPdf::2                   0                       # What write queue length does an incoming req see (Count)
system.far_mem_ctrl1.wrQLenPdf::3                   0                       # What write queue length does an incoming req see (Count)
system.far_mem_ctrl1.wrQLenPdf::4                   0                       # What write queue length does an incoming req see (Count)
system.far_mem_ctrl1.wrQLenPdf::5                   0                       # What write queue length does an incoming req see (Count)
system.far_mem_ctrl1.wrQLenPdf::6                   0                       # What write queue length does an incoming req see (Count)
system.far_mem_ctrl1.wrQLenPdf::7                   0                       # What write queue length does an incoming req see (Count)
system.far_mem_ctrl1.wrQLenPdf::8                   0                       # What write queue length does an incoming req see (Count)
system.far_mem_ctrl1.wrQLenPdf::9                   0                       # What write queue length does an incoming req see (Count)
system.far_mem_ctrl1.wrQLenPdf::10                  0                       # What write queue length does an incoming req see (Count)
system.far_mem_ctrl1.wrQLenPdf::11                  0                       # What write queue length does an incoming req see (Count)
system.far_mem_ctrl1.wrQLenPdf::12                  0                       # What write queue length does an incoming req see (Count)
system.far_mem_ctrl1.wrQLenPdf::13                  0                       # What write queue length does an incoming req see (Count)
system.far_mem_ctrl1.wrQLenPdf::14                  0                       # What write queue length does an incoming req see (Count)
[...]
system.mem_ctrl0.writePktSize::5                    0                       # Write request sizes (log2) (Count)
system.mem_ctrl0.writePktSize::6                    0                       # Write request sizes (log2) (Count)
system.mem_ctrl0.bytesReadWrQ                       0                       # Total number of bytes read from write queue (Byte)
system.mem_ctrl0.bytesReadSys                  372160                       # Total read bytes from the system interface side (Byte)
system.mem_ctrl0.bytesWrittenSys                    0                       # Total written bytes from the system interface side (Byte)
system.mem_ctrl0.avgRdBWSys              3721043331.91754532                       # Average system read bandwidth in Byte/s ((Byte/Second))
system.mem_ctrl0.avgWrBWSys                0.00000000                       # Average system write bandwidth in Byte/s ((Byte/Second))
system.mem_ctrl0.totGap                  18446603751158120448                       # Total gap between requests (Tick)
system.mem_ctrl0.avgGap                  3172244841127793.50                       # Average gap between requests ((Tick/Count))
system.mem_ctrl0.avgORBLen                   210.3370                       # Average ORB length ((Count/Tick))
system.mem_ctrl0.avgLocRdQLenStrt              138.35                       # Average local read queue length ((Count/Tick))
system.mem_ctrl0.avgLocWrQLenStrt               20.93                       # Average local write queue length ((Count/Tick))
system.mem_ctrl0.avgFarRdQLenStrt                0.00                       # Average far read queue length ((Count/Tick))
system.mem_ctrl0.avgFarWrQLenStrt                0.00                       # Average far write queue length ((Count/Tick))
system.mem_ctrl0.avgLocRdQLenEnq               139.35                       # Average local read queue length when enqueuing ((Count/Tick))
system.mem_ctrl0.avgLocWrQLenEnq                22.96                       # Average local write queue length when enqueuing ((Count/Tick))
system.mem_ctrl0.avgFarRdQLenEnq                 1.00                       # Average far read queue length when enqueuing ((Count/Tick))
system.mem_ctrl0.avgFarWrQLenEnq                 0.00                       # Average far write queue length when enqueuing ((Count/Tick))
system.mem_ctrl0.numWrBacks                         0                       # Total number of write backs from DRAM cache to main memory (Unspecified)
system.mem_ctrl0.totNumConf                        80                       # Total number of packets conflicted on DRAM cache (Unspecified)
system.mem_ctrl0.totNumORBFull                     26                       # Total number of packets ORB full (Unspecified)
system.mem_ctrl0.totNumCRBFull                      0                       # Total number of packets conflicted yet couldn't enter confBuffer (Unspecified)
system.mem_ctrl0.maxNumConf                         6                       # Maximum number of packets conflicted on DRAM cache (Unspecified)
system.mem_ctrl0.sentLocRdPort                   5746                       # stat (Unspecified)
system.mem_ctrl0.sentLocWrPort                   5680                       # stat (Unspecified)
system.mem_ctrl0.failedLocRdPort                11099                       # stat (Unspecified)
system.mem_ctrl0.failedLocWrPort                11057                       # stat (Unspecified)
system.mem_ctrl0.recvdRdPort                        0                       # stat (Unspecified)
system.mem_ctrl0.sentFarRdPort                   5714                       # stat (Unspecified)
system.mem_ctrl0.sentFarWrPort                      0                       # stat (Unspecified)
system.mem_ctrl0.failedFarRdPort                    0                       # stat (Unspecified)
system.mem_ctrl0.failedFarWrPort                    0                       # stat (Unspecified)
system.mem_ctrl0.totPktsServiceTime          20733516                       # stat (Unspecified)
system.mem_ctrl0.totPktsORBTime              20578614                       # stat (Unspecified)
system.mem_ctrl0.totTimeFarRdtoSend                 0                       # stat (Unspecified)
system.mem_ctrl0.totTimeFarRdtoRecv           1551430                       # stat (Unspecified)
system.mem_ctrl0.totTimeFarWrtoSend                 0                       # stat (Unspecified)
system.mem_ctrl0.totTimeInLocRead            16812924                       # stat (Unspecified)
system.mem_ctrl0.totTimeInLocWrite            2208970                       # stat (Unspecified)
system.mem_ctrl0.totTimeInFarRead             1551430                       # stat (Unspecified)
system.mem_ctrl0.numTotHits                         0                       # stat (Unspecified)
system.mem_ctrl0.numTotMisses                    5815                       # stat (Unspecified)
system.mem_ctrl0.numColdMisses                   4903                       # stat (Unspecified)
system.mem_ctrl0.numHotMisses                     912                       # stat (Unspecified)
system.mem_ctrl0.numRdMissClean                  5815                       # stat (Unspecified)
system.mem_ctrl0.numRdMissDirty                     0                       # stat (Unspecified)
system.mem_ctrl0.numRdHit                           0                       # stat (Unspecified)
system.mem_ctrl0.numWrMissClean                     0                       # stat (Unspecified)
system.mem_ctrl0.numWrMissDirty                     0                       # stat (Unspecified)
system.mem_ctrl0.numWrHit                           0                       # stat (Unspecified)
system.mem_ctrl0.numRdHitDirty                      0                       # stat (Unspecified)
system.mem_ctrl0.numRdHitClean                      0                       # stat (Unspecified)
system.mem_ctrl0.numWrHitDirty                      0                       # stat (Unspecified)
system.mem_ctrl0.numWrHitClean                      0                       # stat (Unspecified)
system.mem_ctrl0.power_state.pwrStateResidencyTicks::UNDEFINED    100014960                       # Cumulative time (in ticks) in various power states (Tick)
system.mem_ctrl1.bytesRead::generators0        185920                       # Number of bytes read from this memory (Byte)
system.mem_ctrl1.bytesRead::generators1        181312                       # Number of bytes read from this memory (Byte)
system.mem_ctrl1.bytesRead::total              367232                       # Number of bytes read from this memory (Byte)
system.mem_ctrl1.numReads::generators0           2905                       # Number of read requests responded to by this memory (Count)
system.mem_ctrl1.numReads::generators1           2833                       # Number of read requests responded to by this memory (Count)
system.mem_ctrl1.numReads::total                 5738                       # Number of read requests responded to by this memory (Count)
system.mem_ctrl1.bwRead::generators0       1858921905                       # Total read bandwidth from this memory ((Byte/Second))
system.mem_ctrl1.bwRead::generators1       1812848798                       # Total read bandwidth from this memory ((Byte/Second))
system.mem_ctrl1.bwRead::total             3671770703                       # Total read bandwidth from this memory ((Byte/Second))
system.mem_ctrl1.bwTotal::generators0      1858921905                       # Total bandwidth to/from this memory ((Byte/Second))
system.mem_ctrl1.bwTotal::generators1      1812848798                       # Total bandwidth to/from this memory ((Byte/Second))
system.mem_ctrl1.bwTotal::total            3671770703                       # Total bandwidth to/from this memory ((Byte/Second))
system.mem_ctrl1.readReqs                        5969                       # Number of read requests accepted (Count)
system.mem_ctrl1.writeReqs                          0                       # Number of write requests accepted (Count)
system.mem_ctrl1.servicedByWrQ                      0                       # Number of controller read bursts serviced by the write queue (Count)
system.mem_ctrl1.mergedWrBursts                     0                       # Number of controller write bursts merged with an existing one (Count)
system.mem_ctrl1.numRdRetry                      4904                       # Number of times read queue was full causing retry (Count)
system.mem_ctrl1.numWrRetry                         0                       # Number of times write queue was full causing retry (Count)
system.mem_ctrl1.readPktSize::0                     0                       # Read request sizes (log2) (Count)
system.mem_ctrl1.readPktSize::1                     0                       # Read request sizes (log2) (Count)
system.mem_ctrl1.readPktSize::2                     0                       # Read request sizes (log2) (Count)
system.mem_ctrl1.readPktSize::3                     0                       # Read request sizes (log2) (Count)
system.mem_ctrl1.readPktSize::4                     0                       # Read request sizes (log2) (Count)
system.mem_ctrl1.readPktSize::5                     0                       # Read request sizes (log2) (Count)
system.mem_ctrl1.readPktSize::6                  5969                       # Read request sizes (log2) (Count)
system.mem_ctrl1.writePktSize::0                    0                       # Write request sizes (log2) (Count)
system.mem_ctrl1.writePktSize::1                    0                       # Write request sizes (log2) (Count)
system.mem_ctrl1.writePktSize::2                    0                       # Write request sizes (log2) (Count)
system.mem_ctrl1.writePktSize::3                    0                       # Write request sizes (log2) (Count)
system.mem_ctrl1.writePktSize::4                    0                       # Write request sizes (log2) (Count)
system.mem_ctrl1.writePktSize::5                    0                       # Write request sizes (log2) (Count)
system.mem_ctrl1.writePktSize::6                    0                       # Write request sizes (log2) (Count)
system.mem_ctrl1.bytesReadWrQ                       0                       # Total number of bytes read from write queue (Byte)
system.mem_ctrl1.bytesReadSys                  382016                       # Total read bytes from the system interface side (Byte)
system.mem_ctrl1.bytesWrittenSys                    0                       # Total written bytes from the system interface side (Byte)
system.mem_ctrl1.avgRdBWSys              3819588589.54700422                       # Average system read bandwidth in Byte/s ((Byte/Second))
system.mem_ctrl1.avgWrBWSys                0.00000000                       # Average system write bandwidth in Byte/s ((Byte/Second))
system.mem_ctrl1.totGap                  18446603751143219200                       # Total gap between requests (Tick)
system.mem_ctrl1.avgGap                  3090401030514863.50                       # Average gap between requests ((Tick/Count))
system.mem_ctrl1.avgORBLen                   253.0096                       # Average ORB length ((Count/Tick))
system.mem_ctrl1.avgLocRdQLenStrt              181.85                       # Average local read queue length ((Count/Tick))
system.mem_ctrl1.avgLocWrQLenStrt               19.33                       # Average local write queue length ((Count/Tick))
system.mem_ctrl1.avgFarRdQLenStrt                0.00                       # Average far read queue length ((Count/Tick))
system.mem_ctrl1.avgFarWrQLenStrt                0.00                       # Average far write queue length ((Count/Tick))
system.mem_ctrl1.avgLocRdQLenEnq               182.85                       # Average local read queue length when enqueuing ((Count/Tick))
system.mem_ctrl1.avgLocWrQLenEnq                23.91                       # Average local write queue length when enqueuing ((Count/Tick))
system.mem_ctrl1.avgFarRdQLenEnq                 1.00                       # Average far read queue length when enqueuing ((Count/Tick))
system.mem_ctrl1.avgFarWrQLenEnq                 0.00                       # Average far write queue length when enqueuing ((Count/Tick))
system.mem_ctrl1.numWrBacks                         0                       # Total number of write backs from DRAM cache to main memory (Unspecified)
system.mem_ctrl1.totNumConf                        99                       # Total number of packets conflicted on DRAM cache (Unspecified)
system.mem_ctrl1.totNumORBFull                   4904                       # Total number of packets ORB full (Unspecified)
system.mem_ctrl1.totNumCRBFull                      0                       # Total number of packets conflicted yet couldn't enter confBuffer (Unspecified)
system.mem_ctrl1.maxNumConf                         7                       # Maximum number of packets conflicted on DRAM cache (Unspecified)
system.mem_ctrl1.sentLocRdPort                   5789                       # stat (Unspecified)
system.mem_ctrl1.sentLocWrPort                   5714                       # stat (Unspecified)
system.mem_ctrl1.failedLocRdPort                11200                       # stat (Unspecified)
system.mem_ctrl1.failedLocWrPort                11130                       # stat (Unspecified)
system.mem_ctrl1.recvdRdPort                        0                       # stat (Unspecified)
system.mem_ctrl1.sentFarRdPort                   5755                       # stat (Unspecified)
system.mem_ctrl1.sentFarWrPort                      0                       # stat (Unspecified)
system.mem_ctrl1.failedFarRdPort                    0                       # stat (Unspecified)
system.mem_ctrl1.failedFarWrPort                    0                       # stat (Unspecified)
system.mem_ctrl1.totPktsServiceTime          24933560                       # stat (Unspecified)
system.mem_ctrl1.totPktsORBTime              24731771                       # stat (Unspecified)
system.mem_ctrl1.totTimeFarRdtoSend                 0                       # stat (Unspecified)
system.mem_ctrl1.totTimeFarRdtoRecv           1559160                       # stat (Unspecified)
system.mem_ctrl1.totTimeFarWrtoSend                 0                       # stat (Unspecified)
system.mem_ctrl1.totTimeInLocRead            20863147                       # stat (Unspecified)
system.mem_ctrl1.totTimeInLocWrite            2304310                       # stat (Unspecified)
system.mem_ctrl1.totTimeInFarRead             1559160                       # stat (Unspecified)
system.mem_ctrl1.numTotHits                         0                       # stat (Unspecified)
system.mem_ctrl1.numTotMisses                    5969                       # stat (Unspecified)
system.mem_ctrl1.numColdMisses                   5000                       # stat (Unspecified)
system.mem_ctrl1.numHotMisses                     969                       # stat (Unspecified)
system.mem_ctrl1.numRdMissClean                  5969                       # stat (Unspecified)
system.mem_ctrl1.numRdMissDirty                     0                       # stat (Unspecified)
system.mem_ctrl1.numRdHit                           0                       # stat (Unspecified)
system.mem_ctrl1.numWrMissClean                     0                       # stat (Unspecified)
system.mem_ctrl1.numWrMissDirty                     0                       # stat (Unspecified)
system.mem_ctrl1.numWrHit                           0                       # stat (Unspecified)
system.mem_ctrl1.numRdHitDirty                      0                       # stat (Unspecified)
system.mem_ctrl1.numRdHitClean                      0                       # stat (Unspecified)
system.mem_ctrl1.numWrHitDirty                      0                       # stat (Unspecified)
system.mem_ctrl1.numWrHitClean                      0                       # stat (Unspecified)
system.mem_ctrl1.power_state.pwrStateResidencyTicks::UNDEFINED    100014960                       # Cumulative time (in ticks) in various power states (Tick)
system.membus.transDist::ReadReq                11784                       # Transaction distribution (Count)
system.membus.transDist::ReadResp               11428                       # Transaction distribution (Count)
system.membus.pktCount_system.generators0.port::system.mem_ctrl0.port         5691                       # Packet count per connected requestor and responder (Count)
system.membus.pktCount_system.generators0.port::system.mem_ctrl1.port         5928                       # Packet count per connected requestor and responder (Count)
system.membus.pktCount_system.generators0.port::total        11619                       # Packet count per connected requestor and responder (Count)
system.membus.pktCount_system.generators1.port::system.mem_ctrl0.port         5815                       # Packet count per connected requestor and responder (Count)
system.membus.pktCount_system.generators1.port::system.mem_ctrl1.port         5778                       # Packet count per connected requestor and responder (Count)
system.membus.pktCount_system.generators1.port::total        11593                       # Packet count per connected requestor and responder (Count)
system.membus.pktCount::total                   23212                       # Packet count per connected requestor and responder (Count)
system.membus.pktSize_system.generators0.port::system.mem_ctrl0.port       180224                       # Cumulative packet size per connected requestor and responder (Byte)
system.membus.pktSize_system.generators0.port::system.mem_ctrl1.port       185920                       # Cumulative packet size per connected requestor and responder (Byte)
system.membus.pktSize_system.generators0.port::total       366144                       # Cumulative packet size per connected requestor and responder (Byte)
system.membus.pktSize_system.generators1.port::system.mem_ctrl0.port       184000                       # Cumulative packet size per connected requestor and responder (Byte)
system.membus.pktSize_system.generators1.port::system.mem_ctrl1.port       181248                       # Cumulative packet size per connected requestor and responder (Byte)
system.membus.pktSize_system.generators1.port::total       365248                       # Cumulative packet size per connected requestor and responder (Byte)
system.membus.pktSize::total                   731392                       # Cumulative packet size per connected requestor and responder (Byte)
system.membus.power_state.pwrStateResidencyTicks::UNDEFINED    100014960                       # Cumulative time (in ticks) in various power states (Tick)
system.membus.reqLayer0.occupancy             1654309                       # Layer occupancy (ticks) (Tick)
system.membus.reqLayer0.utilization               0.0                       # Layer utilization (Ratio)
system.membus.reqLayer1.occupancy             2721124                       # Layer occupancy (ticks) (Tick)
system.membus.reqLayer1.utilization               0.0                       # Layer utilization (Ratio)
system.membus.respLayer0.occupancy            2778682                       # Layer occupancy (ticks) (Tick)
system.membus.respLayer0.utilization              0.0                       # Layer utilization (Ratio)
system.membus.respLayer1.occupancy            2768125                       # Layer occupancy (ticks) (Tick)
system.membus.respLayer1.utilization              0.0                       # Layer utilization (Ratio)
system.workload.inst.arm                            0                       # number of arm instructions executed (Count)
system.workload.inst.quiesce                        0                       # number of quiesce instructions executed (Count)

---------- End Simulation Statistics   ----------
