
---------- Begin Simulation Statistics ----------
simSeconds                                   0.000100                       # Number of seconds simulated (Second)
simTicks                                     99999999                       # Number of ticks simulated (Tick)
finalTick                                    99999999                       # Number of ticks from beginning of simulation (restored from checkpoints and never reset) (Tick)
simFreq                                  1000000000000                       # The number of ticks per simulated second ((Tick/Second))
hostSeconds                                      0.02                       # Real time elapsed on the host (Second)
hostTickRate                               5881122344                       # The number of ticks simulated per host second (ticks/s) ((Tick/Second))
hostMemory                                    3516580                       # Number of bytes of host memory used (Byte)
system.clk_domain.clock                           200                       # Clock period in ticks (Tick)
system.clk_domain.voltage_domain.voltage            1                       # Voltage in Volts (Volt)
system.far_mem_ctrl.avgPriority_writebacks::samples      1676.00                       # Average QoS priority value for accepted requests (Count)
system.far_mem_ctrl.priorityMinLatency   0.000000317492                       # per QoS priority minimum request to response latency (Second)
system.far_mem_ctrl.priorityMaxLatency   0.000000886660                       # per QoS priority maximum request to response latency (Second)
system.far_mem_ctrl.numReadWriteTurnArounds            0                       # Number of turnarounds from READ to WRITE (Count)
system.far_mem_ctrl.numWriteReadTurnArounds            0                       # Number of turnarounds from WRITE to READ (Count)
system.far_mem_ctrl.numStayReadState             5024                       # Number of times bus staying in READ state (Count)
system.far_mem_ctrl.numStayWriteState               0                       # Number of times bus staying in WRITE state (Count)
system.far_mem_ctrl.readReqs                     1676                       # Number of read requests accepted (Count)
system.far_mem_ctrl.writeReqs                       0                       # Number of write requests accepted (Count)
system.far_mem_ctrl.readBursts                   1676                       # Number of controller read bursts, including those serviced by the write queue (Count)
system.far_mem_ctrl.writeBursts                     0                       # Number of controller write bursts, including those merged in the write queue (Count)
system.far_mem_ctrl.servicedByWrQ                   0                       # Number of controller read bursts serviced by the write queue (Count)
system.far_mem_ctrl.mergedWrBursts                  0                       # Number of controller write bursts merged with an existing one (Count)
system.far_mem_ctrl.neitherReadNorWriteReqs            0                       # Number of requests that are neither read nor write (Count)
system.far_mem_ctrl.avgRdQLen                    3.65                       # Average read queue length when enqueuing ((Count/Tick))
system.far_mem_ctrl.avgWrQLen                    0.00                       # Average write queue length when enqueuing ((Count/Tick))
system.far_mem_ctrl.numRdRetry                      0                       # Number of times read queue was full causing retry (Count)
system.far_mem_ctrl.numWrRetry                      0                       # Number of times write queue was full causing retry (Count)
system.far_mem_ctrl.readPktSize::0                  0                       # Read request sizes (log2) (Count)
system.far_mem_ctrl.readPktSize::1                  0                       # Read request sizes (log2) (Count)
system.far_mem_ctrl.readPktSize::2                  0                       # Read request sizes (log2) (Count)
system.far_mem_ctrl.readPktSize::3                  0                       # Read request sizes (log2) (Count)
system.far_mem_ctrl.readPktSize::4                  0                       # Read request sizes (log2) (Count)
system.far_mem_ctrl.readPktSize::5                  0                       # Read request sizes (log2) (Count)
system.far_mem_ctrl.readPktSize::6               1676                       # Read request sizes (log2) (Count)
system.far_mem_ctrl.writePktSize::0                 0                       # Write request sizes (log2) (Count)
system.far_mem_ctrl.writePktSize::1                 0                       # Write request sizes (log2) (Count)
system.far_mem_ctrl.writePktSize::2                 0                       # Write request sizes (log2) (Count)
system.far_mem_ctrl.writePktSize::3                 0                       # Write request sizes (log2) (Count)
system.far_mem_ctrl.writePktSize::4                 0                       # Write request sizes (log2) (Count)
system.far_mem_ctrl.writePktSize::5                 0                       # Write request sizes (log2) (Count)
system.far_mem_ctrl.writePktSize::6                 0                       # Write request sizes (log2) (Count)
system.far_mem_ctrl.rdQLenPdf::0                   98                       # What read queue length does an incoming req see (Count)
system.far_mem_ctrl.rdQLenPdf::1                  131                       # What read queue length does an incoming req see (Count)
system.far_mem_ctrl.rdQLenPdf::2                  706                       # What read queue length does an incoming req see (Count)
system.far_mem_ctrl.rdQLenPdf::3                  463                       # What read queue length does an incoming req see (Count)
system.far_mem_ctrl.rdQLenPdf::4                  213                       # What read queue length does an incoming req see (Count)
system.far_mem_ctrl.rdQLenPdf::5                   51                       # What read queue length does an incoming req see (Count)
system.far_mem_ctrl.rdQLenPdf::6                    9                       # What read queue length does an incoming req see (Count)
system.far_mem_ctrl.rdQLenPdf::7                    3                       # What read queue length does an incoming req see (Count)
system.far_mem_ctrl.rdQLenPdf::8                    2                       # What read queue length does an incoming req see (Count)
system.far_mem_ctrl.rdQLenPdf::9                    0                       # What read queue length does an incoming req see (Count)
system.far_mem_ctrl.rdQLenPdf::10                   0                       # What read queue length does an incoming req see (Count)
system.far_mem_ctrl.rdQLenPdf::11                   0                       # What read queue length does an incoming req see (Count)
system.far_mem_ctrl.rdQLenPdf::12                   0                       # What read queue length does an incoming req see (Count)
system.far_mem_ctrl.rdQLenPdf::13                   0                       # What read queue length does an incoming req see (Count)
system.far_mem_ctrl.rdQLenPdf::14                   0                       # What read queue length does an incoming req see (Count)
system.far_mem_ctrl.rdQLenPdf::15                   0                       # What read queue length does an incoming req see (Count)
system.far_mem_ctrl.rdQLenPdf::16                   0                       # What read queue length does an incoming req see (Count)
system.far_mem_ctrl.rdQLenPdf::17                   0                       # What read queue length does an incoming req see (Count)
system.far_mem_ctrl.rdQLenPdf::18                   0                       # What read queue length does an incoming req see (Count)
system.far_mem_ctrl.rdQLenPdf::19                   0                       # What read queue length does an incoming req see (Count)
system.far_mem_ctrl.rdQLenPdf::20                   0                       # What read queue length does an incoming req see (Count)
system.far_mem_ctrl.rdQLenPdf::21                   0                       # What read queue length does an incoming req see (Count)
system.far_mem_ctrl.rdQLenPdf::22                   0                       # What read queue length does an incoming req see (Count)
system.far_mem_ctrl.rdQLenPdf::23                   0                       # What read queue length does an incoming req see (Count)
system.far_mem_ctrl.rdQLenPdf::24                   0                       # What read queue length does an incoming req see (Count)
system.far_mem_ctrl.rdQLenPdf::25                   0                       # What read queue length does an incoming req see (Count)
system.far_mem_ctrl.rdQLenPdf::26                   0                       # What read queue length does an incoming req see (Count)
system.far_mem_ctrl.rdQLenPdf::27                   0                       # What read queue length does an incoming req see (Count)
system.far_mem_ctrl.rdQLenPdf::28                   0                       # What read queue length does an incoming req see (Count)
system.far_mem_ctrl.rdQLenPdf::29                   0                       # What read queue length does an incoming req see (Count)
system.far_mem_ctrl.rdQLenPdf::30                   0                       # What read queue length does an incoming req see (Count)
system.far_mem_ctrl.rdQLenPdf::31                   0                       # What read queue length does an incoming req see (Count)
system.far_mem_ctrl.rdQLenPdf::32                   0                       # What read queue length does an incoming req see (Count)
system.far_mem_ctrl.rdQLenPdf::33                   0                       # What read queue length does an incoming req see (Count)
system.far_mem_ctrl.rdQLenPdf::34                   0                       # What read queue length does an incoming req see (Count)
system.far_mem_ctrl.rdQLenPdf::35                   0                       # What read queue length does an incoming req see (Count)
system.far_mem_ctrl.rdQLenPdf::36                   0                       # What read queue length does an incoming req see (Count)
system.far_mem_ctrl.rdQLenPdf::37                   0                       # What read queue length does an incoming req see (Count)
system.far_mem_ctrl.rdQLenPdf::38                   0                       # What read queue length does an incoming req see (Count)
system.far_mem_ctrl.rdQLenPdf::39                   0                       # What read queue length does an incoming req see (Count)
system.far_mem_ctrl.rdQLenPdf::40                   0                       # What read queue length does an incoming req see (Count)
system.far_mem_ctrl.rdQLenPdf::41                   0                       # What read queue length does an incoming req see (Count)
system.far_mem_ctrl.rdQLenPdf::42                   0                       # What read queue length does an incoming req see (Count)
system.far_mem_ctrl.rdQLenPdf::43                   0                       # What read queue length does an incoming req see (Count)
system.far_mem_ctrl.rdQLenPdf::44                   0                       # What read queue length does an incoming req see (Count)
system.far_mem_ctrl.rdQLenPdf::45                   0                       # What read queue length does an incoming req see (Count)
system.far_mem_ctrl.rdQLenPdf::46                   0                       # What read queue length does an incoming req see (Count)
system.far_mem_ctrl.rdQLenPdf::47                   0                       # What read queue length does an incoming req see (Count)
system.far_mem_ctrl.rdQLenPdf::48                   0                       # What read queue length does an incoming req see (Count)
system.far_mem_ctrl.rdQLenPdf::49                   0                       # What read queue length does an incoming req see (Count)
system.far_mem_ctrl.rdQLenPdf::50                   0                       # What read queue length does an incoming req see (Count)
system.far_mem_ctrl.rdQLenPdf::51                   0                       # What read queue length does an incoming req see (Count)
system.far_mem_ctrl.rdQLenPdf::52                   0                       # What read queue length does an incoming req see (Count)
system.far_mem_ctrl.rdQLenPdf::53                   0                       # What read queue length does an incoming req see (Count)
system.far_mem_ctrl.rdQLenPdf::54                   0                       # What read queue length does an incoming req see (Count)
system.far_mem_ctrl.rdQLenPdf::55                   0                       # What read queue length does an incoming req see (Count)
system.far_mem_ctrl.rdQLenPdf::56                   0                       # What read queue length does an incoming req see (Count)
system.far_mem_ctrl.rdQLenPdf::57                   0                       # What read queue length does an incoming req see (Count)
system.far_mem_ctrl.rdQLenPdf::58                   0                       # What read queue length does an incoming req see (Count)
system.far_mem_ctrl.rdQLenPdf::59                   0                       # What read queue length does an incoming req see (Count)
system.far_mem_ctrl.rdQLenPdf::60                   0                       # What read queue length does an incoming req see (Count)
system.far_mem_ctrl.rdQLenPdf::61                   0                       # What read queue length does an incoming req see (Count)
system.far_mem_ctrl.rdQLenPdf::62                   0                       # What read queue length does an incoming req see (Count)
system.far_mem_ctrl.rdQLenPdf::63                   0                       # What read queue length does an incoming req see (Count)
system.far_mem_ctrl.rdQLenPdf::64                   0                       # What read queue length does an incoming req see (Count)
system.far_mem_ctrl.rdQLenPdf::65                   0                       # What read queue length does an incoming req see (Count)
system.far_mem_ctrl.rdQLenPdf::66                   0                       # What read queue length does an incoming req see (Count)
system.far_mem_ctrl.rdQLenPdf::67                   0                       # What read queue length does an incoming req see (Count)
system.far_mem_ctrl.rdQLenPdf::68                   0                       # What read queue length does an incoming req see (Count)
system.far_mem_ctrl.rdQLenPdf::69                   0                       # What read queue length does an incoming req see (Count)
system.far_mem_ctrl.rdQLenPdf::70                   0                       # What read queue length does an incoming req see (Count)
system.far_mem_ctrl.rdQLenPdf::71                   0                       # What read queue length does an incoming req see (Count)
system.far_mem_ctrl.rdQLenPdf::72                   0                       # What read queue length does an incoming req see (Count)
system.far_mem_ctrl.rdQLenPdf::73                   0                       # What read queue length does an incoming req see (Count)
system.far_mem_ctrl.rdQLenPdf::74                   0                       # What read queue length does an incoming req see (Count)
system.far_mem_ctrl.rdQLenPdf::75                   0                       # What read queue length does an incoming req see (Count)
system.far_mem_ctrl.rdQLenPdf::76                   0                       # What read queue length does an incoming req see (Count)
system.far_mem_ctrl.rdQLenPdf::77                   0                       # What read queue length does an incoming req see (Count)
system.far_mem_ctrl.rdQLenPdf::78                   0                       # What read queue length does an incoming req see (Count)
system.far_mem_ctrl.rdQLenPdf::79                   0                       # What read queue length does an incoming req see (Count)
system.far_mem_ctrl.rdQLenPdf::80                   0                       # What read queue length does an incoming req see (Count)
system.far_mem_ctrl.rdQLenPdf::81                   0                       # What read queue length does an incoming req see (Count)
system.far_mem_ctrl.rdQLenPdf::82                   0                       # What read queue length does an incoming req see (Count)
system.far_mem_ctrl.rdQLenPdf::83                   0                       # What read queue length does an incoming req see (Count)
system.far_mem_ctrl.rdQLenPdf::84                   0                       # What read queue length does an incoming req see (Count)
system.far_mem_ctrl.rdQLenPdf::85                   0                       # What read queue length does an incoming req see (Count)
system.far_mem_ctrl.rdQLenPdf::86                   0                       # What read queue length does an incoming req see (Count)
system.far_mem_ctrl.rdQLenPdf::87                   0                       # What read queue length does an incoming req see (Count)
system.far_mem_ctrl.rdQLenPdf::88                   0                       # What read queue length does an incoming req see (Count)
system.far_mem_ctrl.rdQLenPdf::89                   0                       # What read queue length does an incoming req see (Count)
system.far_mem_ctrl.rdQLenPdf::90                   0                       # What read queue length does an incoming req see (Count)
system.far_mem_ctrl.rdQLenPdf::91                   0                       # What read queue length does an incoming req see (Count)
system.far_mem_ctrl.rdQLenPdf::92                   0                       # What read queue length does an incoming req see (Count)
system.far_mem_ctrl.rdQLenPdf::93                   0                       # What read queue length does an incoming req see (Count)
system.far_mem_ctrl.rdQLenPdf::94                   0                       # What read queue length does an incoming req see (Count)
system.far_mem_ctrl.rdQLenPdf::95                   0                       # What read queue length does an incoming req see (Count)
system.far_mem_ctrl.rdQLenPdf::96                   0                       # What read queue length does an incoming req see (Count)
system.far_mem_ctrl.rdQLenPdf::97                   0                       # What read queue length does an incoming req see (Count)
system.far_mem_ctrl.rdQLenPdf::98                   0                       # What read queue length does an incoming req see (Count)
system.far_mem_ctrl.rdQLenPdf::99                   0                       # What read queue length does an incoming req see (Count)
system.far_mem_ctrl.rdQLenPdf::100                  0                       # What read queue length does an incoming req see (Count)
system.far_mem_ctrl.rdQLenPdf::101                  0                       # What read queue length does an incoming req see (Count)
system.far_mem_ctrl.rdQLenPdf::102                  0                       # What read queue length does an incoming req see (Count)
system.far_mem_ctrl.rdQLenPdf::103                  0                       # What read queue length does an incoming req see (Count)
system.far_mem_ctrl.rdQLenPdf::104                  0                       # What read queue length does an incoming req see (Count)
system.far_mem_ctrl.rdQLenPdf::105                  0                       # What read queue length does an incoming req see (Count)
system.far_mem_ctrl.rdQLenPdf::106                  0                       # What read queue length does an incoming req see (Count)
system.far_mem_ctrl.rdQLenPdf::107                  0                       # What read queue length does an incoming req see (Count)
system.far_mem_ctrl.rdQLenPdf::108                  0                       # What read queue length does an incoming req see (Count)
system.far_mem_ctrl.rdQLenPdf::109                  0                       # What read queue length does an incoming req see (Count)
system.far_mem_ctrl.rdQLenPdf::110                  0                       # What read queue length does an incoming req see (Count)
system.far_mem_ctrl.rdQLenPdf::111                  0                       # What read queue length does an incoming req see (Count)
system.far_mem_ctrl.rdQLenPdf::112                  0                       # What read queue length does an incoming req see (Count)
system.far_mem_ctrl.rdQLenPdf::113                  0                       # What read queue length does an incoming req see (Count)
system.far_mem_ctrl.rdQLenPdf::114                  0                       # What read queue length does an incoming req see (Count)
system.far_mem_ctrl.rdQLenPdf::115                  0                       # What read queue length does an incoming req see (Count)
system.far_mem_ctrl.rdQLenPdf::116                  0                       # What read queue length does an incoming req see (Count)
system.far_mem_ctrl.rdQLenPdf::117                  0                       # What read queue length does an incoming req see (Count)
system.far_mem_ctrl.rdQLenPdf::118                  0                       # What read queue length does an incoming req see (Count)
system.far_mem_ctrl.rdQLenPdf::119                  0                       # What read queue length does an incoming req see (Count)
system.far_mem_ctrl.rdQLenPdf::120                  0                       # What read queue length does an incoming req see (Count)
system.far_mem_ctrl.rdQLenPdf::121                  0                       # What read queue length does an incoming req see (Count)
system.far_mem_ctrl.rdQLenPdf::122                  0                       # What read queue length does an incoming req see (Count)
system.far_mem_ctrl.rdQLenPdf::123                  0                       # What read queue length does an incoming req see (Count)
system.far_mem_ctrl.rdQLenPdf::124                  0                       # What read queue length does an incoming req see (Count)
system.far_mem_ctrl.rdQLenPdf::125                  0                       # What read queue length does an incoming req see (Count)
system.far_mem_ctrl.rdQLenPdf::126                  0                       # What read queue length does an incoming req see (Count)
system.far_mem_ctrl.rdQLenPdf::127                  0                       # What read queue length does an incoming req see (Count)
system.far_mem_ctrl.wrQLenPdf::0                    0                       # What write queue length does an incoming req see (Count)
system.far_mem_ctrl.wrQLenPdf::1                    0                       # What write queue length does an incoming req see (Count)
system.far_mem_ctrl.wrQLenPdf::2                    0                       # What write queue length does an incoming req see (Count)
system.far_mem_ctrl.wrQLenPdf::3                    0                       # What write queue length does an incoming req see (Count)
system.far_mem_ctrl.wrQLenPdf::4                    0                       # What write queue length does an incoming req see (Count)
system.far_mem_ctrl.wrQLenPdf::5                    0                       # What write queue length does an incoming req see (Count)
system.far_mem_ctrl.wrQLenPdf::6                    0                       # What write queue length does an incoming req see (Count)
system.far_mem_ctrl.wrQLenPdf::7                    0                       # What write queue length does an incoming req see (Count)
system.far_mem_ctrl.wrQLenPdf::8                    0                       # What write queue length does an incoming req see (Count)
system.far_mem_ctrl.wrQLenPdf::9                    0                       # What write queue length does an incoming req see (Count)
system.far_mem_ctrl.wrQLenPdf::10                   0                       # What write queue length does an incoming req see (Count)
system.far_mem_ctrl.wrQLenPdf::11                   0                       # What write queue length does an incoming req see (Count)
system.far_mem_ctrl.wrQLenPdf::12                   0                       # What write queue length does an incoming req see (Count)
system.far_mem_ctrl.wrQLenPdf::13                   0                       # What write queue length does an incoming req see (Count)
system.far_mem_ctrl.wrQLenPdf::14                   0                       # What write queue length does an incoming req see (Count)
system.far_mem_ctrl.wrQLenPdf::15                   0                       # What write queue length does an incoming req see (Count)
system.far_mem_ctrl.wrQLenPdf::16                   0                       # What write queue length does an incoming req see (Count)
system.far_mem_ctrl.wrQLenPdf::17                   0                       # What write queue length does an incoming req see (Count)
system.far_mem_ctrl.wrQLenPdf::18                   0                       # What write queue length does an incoming req see (Count)
system.far_mem_ctrl.wrQLenPdf::19                   0                       # What write queue length does an incoming req see (Count)
system.far_mem_ctrl.wrQLenPdf::20                   0                       # What write queue length does an incoming req see (Count)
system.far_mem_ctrl.wrQLenPdf::21                   0                       # What write queue length does an incoming req see (Count)
system.far_mem_ctrl.wrQLenPdf::22                   0                       # What write queue length does an incoming req see (Count)
system.far_mem_ctrl.wrQLenPdf::23                   0                       # What write queue length does an incoming req see (Count)
system.far_mem_ctrl.wrQLenPdf::24                   0                       # What write queue length does an incoming req see (Count)
system.far_mem_ctrl.wrQLenPdf::25                   0                       # What write queue length does an incoming req see (Count)
system.far_mem_ctrl.wrQLenPdf::26                   0                       # What write queue length does an incoming req see (Count)
system.far_mem_ctrl.wrQLenPdf::27                   0                       # What write queue length does an incoming req see (Count)
system.far_mem_ctrl.wrQLenPdf::28                   0                       # What write queue length does an incoming req see (Count)
system.far_mem_ctrl.wrQLenPdf::29                   0                       # What write queue length does an incoming req see (Count)
system.far_mem_ctrl.wrQLenPdf::30                   0                       # What write queue length does an incoming req see (Count)
system.far_mem_ctrl.wrQLenPdf::31                   0                       # What write queue length does an incoming req see (Count)
system.far_mem_ctrl.wrQLenPdf::32                   0                       # What write queue length does an incoming req see (Count)
system.far_mem_ctrl.wrQLenPdf::33                   0                       # What write queue length does an incoming req see (Count)
system.far_mem_ctrl.wrQLenPdf::34                   0                       # What write queue length does an incoming req see (Count)
system.far_mem_ctrl.wrQLenPdf::35                   0                       # What write queue length does an incoming req see (Count)
system.far_mem_ctrl.wrQLenPdf::36                   0                       # What write queue length does an incoming req see (Count)
system.far_mem_ctrl.wrQLenPdf::37                   0                       # What write queue length does an incoming req see (Count)
system.far_mem_ctrl.wrQLenPdf::38                   0                       # What write queue length does an incoming req see (Count)
system.far_mem_ctrl.wrQLenPdf::39                   0                       # What write queue length does an incoming req see (Count)
system.far_mem_ctrl.wrQLenPdf::40                   0                       # What write queue length does an incoming req see (Count)
system.far_mem_ctrl.wrQLenPdf::41                   0                       # What write queue length does an incoming req see (Count)
system.far_mem_ctrl.wrQLenPdf::42                   0                       # What write queue length does an incoming req see (Count)
system.far_mem_ctrl.wrQLenPdf::43                   0                       # What write queue length does an incoming req see (Count)
system.far_mem_ctrl.wrQLenPdf::44                   0                       # What write queue length does an incoming req see (Count)
system.far_mem_ctrl.wrQLenPdf::45                   0                       # What write queue length does an incoming req see (Count)
system.far_mem_ctrl.wrQLenPdf::46                   0                       # What write queue length does an incoming req see (Count)
system.far_mem_ctrl.wrQLenPdf::47                   0                       # What write queue length does an incoming req see (Count)
system.far_mem_ctrl.wrQLenPdf::48                   0                       # What write queue length does an incoming req see (Count)
system.far_mem_ctrl.wrQLenPdf::49                   0                       # What write queue length does an incoming req see (Count)
system.far_mem_ctrl.wrQLenPdf::50                   0                       # What write queue length does an incoming req see (Count)
system.far_mem_ctrl.wrQLenPdf::51                   0                       # What write queue length does an incoming req see (Count)
system.far_mem_ctrl.wrQLenPdf::52                   0                       # What write queue length does an incoming req see (Count)
system.far_mem_ctrl.wrQLenPdf::53                   0                       # What write queue length does an incoming req see (Count)
system.far_mem_ctrl.wrQLenPdf::54                   0                       # What write queue length does an incoming req see (Count)
system.far_mem_ctrl.wrQLenPdf::55                   0                       # What write queue length does an incoming req see (Count)
system.far_mem_ctrl.wrQLenPdf::56                   0                       # What write queue length does an incoming req see (Count)
system.far_mem_ctrl.wrQLenPdf::57                   0                       # What write queue length does an incoming req see (Count)
system.far_mem_ctrl.wrQLenPdf::58                   0                       # What write queue length does an incoming req see (Count)
system.far_mem_ctrl.wrQLenPdf::59                   0                       # What write queue length does an incoming req see (Count)
system.far_mem_ctrl.wrQLenPdf::60                   0                       # What write queue length does an incoming req see (Count)
system.far_mem_ctrl.wrQLenPdf::61                   0                       # What write queue length does an incoming req see (Count)
system.far_mem_ctrl.wrQLenPdf::62                   0                       # What write queue length does an incoming req see (Count)
system.far_mem_ctrl.wrQLenPdf::63                   0                       # What write queue length does an incoming req see (Count)
system.far_mem_ctrl.wrQLenPdf::64                   0                       # What write queue length does an incoming req see (Count)
system.far_mem_ctrl.wrQLenPdf::65                   0                       # What write queue length does an incoming req see (Count)
system.far_mem_ctrl.wrQLenPdf::66                   0                       # What write queue length does an incoming req see (Count)
system.far_mem_ctrl.wrQLenPdf::67                   0                       # What write queue length does an incoming req see (Count)
system.far_mem_ctrl.wrQLenPdf::68                   0                       # What write queue length does an incoming req see (Count)
system.far_mem_ctrl.wrQLenPdf::69                   0                       # What write queue length does an incoming req see (Count)
system.far_mem_ctrl.wrQLenPdf::70                   0                       # What write queue length does an incoming req see (Count)
system.far_mem_ctrl.wrQLenPdf::71                   0                       # What write queue length does an incoming req see (Count)
system.far_mem_ctrl.wrQLenPdf::72                   0                       # What write queue length does an incoming req see (Count)
system.far_mem_ctrl.wrQLenPdf::73                   0                       # What write queue length does an incoming req see (Count)
system.far_mem_ctrl.wrQLenPdf::74                   0                       # What write queue length does an incoming req see (Count)
system.far_mem_ctrl.wrQLenPdf::75                   0                       # What write queue length does an incoming req see (Count)
system.far_mem_ctrl.wrQLenPdf::76                   0                       # What write queue length does an incoming req see (Count)
system.far_mem_ctrl.wrQLenPdf::77                   0                       # What write queue length does an incoming req see (Count)
system.far_mem_ctrl.wrQLenPdf::78                   0                       # What write queue length does an incoming req see (Count)
system.far_mem_ctrl.wrQLenPdf::79                   0                       # What write queue length does an incoming req see (Count)
system.far_mem_ctrl.wrQLenPdf::80                   0                       # What write queue length does an incoming req see (Count)
system.far_mem_ctrl.wrQLenPdf::81                   0                       # What write queue length does an incoming req see (Count)
system.far_mem_ctrl.wrQLenPdf::82                   0                       # What write queue length does an incoming req see (Count)
system.far_mem_ctrl.wrQLenPdf::83                   0                       # What write queue length does an incoming req see (Count)
system.far_mem_ctrl.wrQLenPdf::84                   0                       # What write queue length does an incoming req see (Count)
system.far_mem_ctrl.wrQLenPdf::85                   0                       # What write queue length does an incoming req see (Count)
system.far_mem_ctrl.wrQLenPdf::86                   0                       # What write queue length does an incoming req see (Count)
system.far_mem_ctrl.wrQLenPdf::87                   0                       # What write queue length does an incoming req see (Count)
system.far_mem_ctrl.wrQLenPdf::88                   0                       # What write queue length does an incoming req see (Count)
system.far_mem_ctrl.wrQLenPdf::89                   0                       # What write queue length does an incoming req see (Count)
system.far_mem_ctrl.wrQLenPdf::90                   0                       # What write queue length does an incoming req see (Count)
system.far_mem_ctrl.wrQLenPdf::91                   0                       # What write queue length does an incoming req see (Count)
system.far_mem_ctrl.wrQLenPdf::92                   0                       # What write queue length does an incoming req see (Count)
system.far_mem_ctrl.wrQLenPdf::93                   0                       # What write queue length does an incoming req see (Count)
system.far_mem_ctrl.wrQLenPdf::94                   0                       # What write queue length does an incoming req see (Count)
system.far_mem_ctrl.wrQLenPdf::95                   0                       # What write queue length does an incoming req see (Count)
system.far_mem_ctrl.wrQLenPdf::96                   0                       # What write queue length does an incoming req see (Count)
system.far_mem_ctrl.wrQLenPdf::97                   0                       # What write queue length does an incoming req see (Count)
system.far_mem_ctrl.wrQLenPdf::98                   0                       # What write queue length does an incoming req see (Count)
system.far_mem_ctrl.wrQLenPdf::99                   0                       # What write queue length does an incoming req see (Count)
system.far_mem_ctrl.wrQLenPdf::100                  0                       # What write queue length does an incoming req see (Count)
system.far_mem_ctrl.wrQLenPdf::101                  0                       # What write queue length does an incoming req see (Count)
system.far_mem_ctrl.wrQLenPdf::102                  0                       # What write queue length does an incoming req see (Count)
system.far_mem_ctrl.wrQLenPdf::103                  0                       # What write queue length does an incoming req see (Count)
system.far_mem_ctrl.wrQLenPdf::104                  0                       # What write queue length does an incoming req see (Count)
system.far_mem_ctrl.wrQLenPdf::105                  0                       # What write queue length does an incoming req see (Count)
system.far_mem_ctrl.wrQLenPdf::106                  0                       # What write queue length does an incoming req see (Count)
system.far_mem_ctrl.wrQLenPdf::107                  0                       # What write queue length does an incoming req see (Count)
system.far_mem_ctrl.wrQLenPdf::108                  0                       # What write queue length does an incoming req see (Count)
system.far_mem_ctrl.wrQLenPdf::109                  0                       # What write queue length does an incoming req see (Count)
system.far_mem_ctrl.wrQLenPdf::110                  0                       # What write queue length does an incoming req see (Count)
system.far_mem_ctrl.wrQLenPdf::111                  0                       # What write queue length does an incoming req see (Count)
system.far_mem_ctrl.wrQLenPdf::112                  0                       # What write queue length does an incoming req see (Count)
system.far_mem_ctrl.wrQLenPdf::113                  0                       # What write queue length does an incoming req see (Count)
system.far_mem_ctrl.wrQLenPdf::114                  0                       # What write queue length does an incoming req see (Count)
system.far_mem_ctrl.wrQLenPdf::115                  0                       # What write queue length does an incoming req see (Count)
system.far_mem_ctrl.wrQLenPdf::116                  0                       # What write queue length does an incoming req see (Count)
system.far_mem_ctrl.wrQLenPdf::117                  0                       # What write queue length does an incoming req see (Count)
system.far_mem_ctrl.wrQLenPdf::118                  0                       # What write queue length does an incoming req see (Count)
system.far_mem_ctrl.wrQLenPdf::119                  0                       # What write queue length does an incoming req see (Count)
system.far_mem_ctrl.wrQLenPdf::120                  0                       # What write queue length does an incoming req see (Count)
system.far_mem_ctrl.wrQLenPdf::121                  0                       # What write queue length does an incoming req see (Count)
system.far_mem_ctrl.wrQLenPdf::122                  0                       # What write queue length does an incoming req see (Count)
system.far_mem_ctrl.wrQLenPdf::123                  0                       # What write queue length does an incoming req see (Count)
system.far_mem_ctrl.wrQLenPdf::124                  0                       # What write queue length does an incoming req see (Count)
system.far_mem_ctrl.wrQLenPdf::125                  0                       # What write queue length does an incoming req see (Count)
system.far_mem_ctrl.wrQLenPdf::126                  0                       # What write queue length does an incoming req see (Count)
system.far_mem_ctrl.wrQLenPdf::127                  0                       # What write queue length does an incoming req see (Count)
system.far_mem_ctrl.bytesReadWrQ                    0                       # Total number of bytes read from write queue (Byte)
system.far_mem_ctrl.bytesReadSys               107264                       # Total read bytes from the system interface side (Byte)
system.far_mem_ctrl.bytesWrittenSys                 0                       # Total written bytes from the system interface side (Byte)
system.far_mem_ctrl.avgRdBWSys           1072640010.72640014                       # Average system read bandwidth in Byte/s ((Byte/Second))
system.far_mem_ctrl.avgWrBWSys             0.00000000                       # Average system write bandwidth in Byte/s ((Byte/Second))
system.far_mem_ctrl.totGap                   99851700                       # Total gap between requests (Tick)
system.far_mem_ctrl.avgGap                   59577.39                       # Average gap between requests ((Tick/Count))
system.far_mem_ctrl.requestorReadBytes::writebacks       107136                       # Per-requestor bytes read from memory (Byte)
system.far_mem_ctrl.requestorReadRate::writebacks 1071360010.713600158691                       # Per-requestor bytes read from memory rate ((Byte/Second))
system.far_mem_ctrl.requestorReadAccesses::writebacks         1676                       # Per-requestor read serviced memory accesses (Count)
system.far_mem_ctrl.requestorReadTotalLat::writebacks    299119740                       # Per-requestor read total memory access latency (Tick)
system.far_mem_ctrl.requestorReadAvgLat::writebacks    178472.40                       # Per-requestor read average memory access latency ((Tick/Count))
system.far_mem_ctrl.dram.bytesRead::writebacks       107072                       # Number of bytes read from this memory (Byte)
system.far_mem_ctrl.dram.bytesRead::total       107072                       # Number of bytes read from this memory (Byte)
system.far_mem_ctrl.dram.numReads::writebacks         1673                       # Number of read requests responded to by this memory (Count)
system.far_mem_ctrl.dram.numReads::total         1673                       # Number of read requests responded to by this memory (Count)
system.far_mem_ctrl.dram.bwRead::writebacks   1070720011                       # Total read bandwidth from this memory ((Byte/Second))
system.far_mem_ctrl.dram.bwRead::total     1070720011                       # Total read bandwidth from this memory ((Byte/Second))
system.far_mem_ctrl.dram.bwTotal::writebacks   1070720011                       # Total bandwidth to/from this memory ((Byte/Second))
system.far_mem_ctrl.dram.bwTotal::total    1070720011                       # Total bandwidth to/from this memory ((Byte/Second))
system.far_mem_ctrl.dram.readBursts              1674                       # Number of NVM read bursts (Count)
system.far_mem_ctrl.dram.writeBursts                0                       # Number of NVM write bursts (Count)
system.far_mem_ctrl.dram.perBankRdBursts::0          102                       # Per bank write bursts (Count)
system.far_mem_ctrl.dram.perBankRdBursts::1          107                       # Per bank write bursts (Count)
system.far_mem_ctrl.dram.perBankRdBursts::2           99                       # Per bank write bursts (Count)
system.far_mem_ctrl.dram.perBankRdBursts::3           99                       # Per bank write bursts (Count)
system.far_mem_ctrl.dram.perBankRdBursts::4           97                       # Per bank write bursts (Count)
system.far_mem_ctrl.dram.perBankRdBursts::5          104                       # Per bank write bursts (Count)
system.far_mem_ctrl.dram.perBankRdBursts::6          104                       # Per bank write bursts (Count)
system.far_mem_ctrl.dram.perBankRdBursts::7          105                       # Per bank write bursts (Count)
system.far_mem_ctrl.dram.perBankRdBursts::8           85                       # Per bank write bursts (Count)
system.far_mem_ctrl.dram.perBankRdBursts::9           89                       # Per bank write bursts (Count)
system.far_mem_ctrl.dram.perBankRdBursts::10          110                       # Per bank write bursts (Count)
system.far_mem_ctrl.dram.perBankRdBursts::11          104                       # Per bank write bursts (Count)
system.far_mem_ctrl.dram.perBankRdBursts::12          118                       # Per bank write bursts (Count)
system.far_mem_ctrl.dram.perBankRdBursts::13          124                       # Per bank write bursts (Count)
system.far_mem_ctrl.dram.perBankRdBursts::14          122                       # Per bank write bursts (Count)
system.far_mem_ctrl.dram.perBankRdBursts::15          105                       # Per bank write bursts (Count)
system.far_mem_ctrl.dram.perBankWrBursts::0            0                       # Per bank write bursts (Count)
system.far_mem_ctrl.dram.perBankWrBursts::1            0                       # Per bank write bursts (Count)
system.far_mem_ctrl.dram.perBankWrBursts::2            0                       # Per bank write bursts (Count)
system.far_mem_ctrl.dram.perBankWrBursts::3            0                       # Per bank write bursts (Count)
system.far_mem_ctrl.dram.perBankWrBursts::4            0                       # Per bank write bursts (Count)
system.far_mem_ctrl.dram.perBankWrBursts::5            0                       # Per bank write bursts (Count)
system.far_mem_ctrl.dram.perBankWrBursts::6            0                       # Per bank write bursts (Count)
system.far_mem_ctrl.dram.perBankWrBursts::7            0                       # Per bank write bursts (Count)
system.far_mem_ctrl.dram.perBankWrBursts::8            0                       # Per bank write bursts (Count)
system.far_mem_ctrl.dram.perBankWrBursts::9            0                       # Per bank write bursts (Count)
system.far_mem_ctrl.dram.perBankWrBursts::10            0                       # Per bank write bursts (Count)
system.far_mem_ctrl.dram.perBankWrBursts::11            0                       # Per bank write bursts (Count)
system.far_mem_ctrl.dram.perBankWrBursts::12            0                       # Per bank write bursts (Count)
system.far_mem_ctrl.dram.perBankWrBursts::13            0                       # Per bank write bursts (Count)
system.far_mem_ctrl.dram.perBankWrBursts::14            0                       # Per bank write bursts (Count)
system.far_mem_ctrl.dram.perBankWrBursts::15            0                       # Per bank write bursts (Count)
system.far_mem_ctrl.dram.totQLat            269838132                       # Total ticks spent queuing (Tick)
system.far_mem_ctrl.dram.totBusLat            5577768                       # Total ticks spent in databus transfers (Tick)
system.far_mem_ctrl.dram.totMemAccLat       299119740                       # Total ticks spent from burst creation until serviced by the NVM (Tick)
system.far_mem_ctrl.dram.avgQLat            161193.63                       # Average queueing delay per NVM burst ((Tick/Count))
system.far_mem_ctrl.dram.avgBusLat            3332.00                       # Average bus latency per NVM burst ((Tick/Count))
system.far_mem_ctrl.dram.avgMemAccLat       178685.63                       # Average memory access latency per NVM burst ((Tick/Count))
system.far_mem_ctrl.dram.avgRdBW              1071.36                       # Average DRAM read bandwidth in MiBytes/s ((Byte/Second))
system.far_mem_ctrl.dram.avgWrBW                 0.00                       # Average DRAM write bandwidth in MiBytes/s ((Byte/Second))
system.far_mem_ctrl.dram.peakBW              19207.00                       # Theoretical peak bandwidth in MiByte/s ((Byte/Second))
system.far_mem_ctrl.dram.busUtil                 5.58                       # NVM Data bus utilization in percentage (Ratio)
system.far_mem_ctrl.dram.busUtilRead             5.58                       # NVM Data bus read utilization in percentage (Ratio)
system.far_mem_ctrl.dram.busUtilWrite            0.00                       # NVM Data bus write utilization in percentage (Ratio)
system.far_mem_ctrl.dram.pendingReads::samples         1674                       # Reads issued to NVM for which data has not been transferred (Count)
system.far_mem_ctrl.dram.pendingReads::mean     2.314815                       # Reads issued to NVM for which data has not been transferred (Count)
system.far_mem_ctrl.dram.pendingReads::stdev     1.064869                       # Reads issued to NVM for which data has not been transferred (Count)
system.far_mem_ctrl.dram.pendingReads::0          103      6.15%      6.15% # Reads issued to NVM for which data has not been transferred (Count)
system.far_mem_ctrl.dram.pendingReads::1          131      7.83%     13.98% # Reads issued to NVM for which data has not been transferred (Count)
system.far_mem_ctrl.dram.pendingReads::2          840     50.18%     64.16% # Reads issued to NVM for which data has not been transferred (Count)
system.far_mem_ctrl.dram.pendingReads::3          388     23.18%     87.34% # Reads issued to NVM for which data has not been transferred (Count)
system.far_mem_ctrl.dram.pendingReads::4          170     10.16%     97.49% # Reads issued to NVM for which data has not been transferred (Count)
system.far_mem_ctrl.dram.pendingReads::5           34      2.03%     99.52% # Reads issued to NVM for which data has not been transferred (Count)
system.far_mem_ctrl.dram.pendingReads::6            6      0.36%     99.88% # Reads issued to NVM for which data has not been transferred (Count)
system.far_mem_ctrl.dram.pendingReads::7            2      0.12%    100.00% # Reads issued to NVM for which data has not been transferred (Count)
system.far_mem_ctrl.dram.pendingReads::total         1674                       # Reads issued to NVM for which data has not been transferred (Count)
system.far_mem_ctrl.dram.bytesPerBank::samples         1676                       # Bytes read within a bank before loading new bank (Byte)
system.far_mem_ctrl.dram.bytesPerBank::mean           64                       # Bytes read within a bank before loading new bank (Byte)
system.far_mem_ctrl.dram.bytesPerBank::gmean    64.000000                       # Bytes read within a bank before loading new bank (Byte)
system.far_mem_ctrl.dram.bytesPerBank::64         1676    100.00%    100.00% # Bytes read within a bank before loading new bank (Byte)
system.far_mem_ctrl.dram.bytesPerBank::total         1676                       # Bytes read within a bank before loading new bank (Byte)
system.far_mem_ctrl.dram.power_state.pwrStateResidencyTicks::UNDEFINED     99999999                       # Cumulative time (in ticks) in various power states (Tick)
system.far_mem_ctrl.power_state.pwrStateResidencyTicks::UNDEFINED     99999999                       # Cumulative time (in ticks) in various power states (Tick)
system.generators.numSuppressed                     0                       # Number of suppressed packets to non-memory space (Count)
system.generators.numPackets                     1677                       # Number of packets generated (Count)
system.generators.numRetries                        0                       # Number of retries (Count)
system.generators.retryTicks                        0                       # Time spent waiting due to back-pressure (Tick)
system.generators.bytesRead                    106944                       # Number of bytes read (Byte)
system.generators.bytesWritten                      0                       # Number of bytes written (Byte)
system.generators.totalReadLatency          528679168                       # Total latency of read requests (Tick)
system.generators.totalWriteLatency                 0                       # Total latency of write requests (Tick)
system.generators.totalReads                     1671                       # Total num of reads (Count)
system.generators.totalWrites                       0                       # Total num of writes (Count)
system.generators.avgReadLatency         316384.900060                       # Avg latency of read requests ((Tick/Count))
system.generators.avgWriteLatency                 nan                       # Avg latency of write requests ((Tick/Count))
system.generators.readBW                 1069440010.694400                       # Read bandwidth ((Byte/Second))
system.generators.writeBW                           0                       # Write bandwidth ((Byte/Second))
system.generators.power_state.pwrStateResidencyTicks::UNDEFINED     99999999                       # Cumulative time (in ticks) in various power states (Tick)
system.loc_mem_ctrlrs.avgPriority_writebacks::samples      3350.00                       # Average QoS priority value for accepted requests (Count)
system.loc_mem_ctrlrs.priorityMinLatency 0.000000023000                       # per QoS priority minimum request to response latency (Second)
system.loc_mem_ctrlrs.priorityMaxLatency 0.000012001400                       # per QoS priority maximum request to response latency (Second)
system.loc_mem_ctrlrs.numReadWriteTurnArounds          103                       # Number of turnarounds from READ to WRITE (Count)
system.loc_mem_ctrlrs.numWriteReadTurnArounds          103                       # Number of turnarounds from WRITE to READ (Count)
system.loc_mem_ctrlrs.numStayReadState           4225                       # Number of times bus staying in READ state (Count)
system.loc_mem_ctrlrs.numStayWriteState          1561                       # Number of times bus staying in WRITE state (Count)
system.loc_mem_ctrlrs.readReqs                   1677                       # Number of read requests accepted (Count)
system.loc_mem_ctrlrs.writeReqs                  1673                       # Number of write requests accepted (Count)
system.loc_mem_ctrlrs.readBursts                 1677                       # Number of controller read bursts, including those serviced by the write queue (Count)
system.loc_mem_ctrlrs.writeBursts                1673                       # Number of controller write bursts, including those merged in the write queue (Count)
system.loc_mem_ctrlrs.servicedByWrQ                 0                       # Number of controller read bursts serviced by the write queue (Count)
system.loc_mem_ctrlrs.mergedWrBursts                0                       # Number of controller write bursts merged with an existing one (Count)
system.loc_mem_ctrlrs.neitherReadNorWriteReqs            0                       # Number of requests that are neither read nor write (Count)
system.loc_mem_ctrlrs.avgRdQLen                  1.42                       # Average read queue length when enqueuing ((Count/Tick))
system.loc_mem_ctrlrs.avgWrQLen                 25.70                       # Average write queue length when enqueuing ((Count/Tick))
system.loc_mem_ctrlrs.numRdRetry                    0                       # Number of times read queue was full causing retry (Count)
system.loc_mem_ctrlrs.numWrRetry                    0                       # Number of times write queue was full causing retry (Count)
system.loc_mem_ctrlrs.readPktSize::0                0                       # Read request sizes (log2) (Count)
system.loc_mem_ctrlrs.readPktSize::1                0                       # Read request sizes (log2) (Count)
system.loc_mem_ctrlrs.readPktSize::2                0                       # Read request sizes (log2) (Count)
system.loc_mem_ctrlrs.readPktSize::3                0                       # Read request sizes (log2) (Count)
system.loc_mem_ctrlrs.readPktSize::4                0                       # Read request sizes (log2) (Count)
system.loc_mem_ctrlrs.readPktSize::5                0                       # Read request sizes (log2) (Count)
system.loc_mem_ctrlrs.readPktSize::6             1677                       # Read request sizes (log2) (Count)
system.loc_mem_ctrlrs.writePktSize::0               0                       # Write request sizes (log2) (Count)
system.loc_mem_ctrlrs.writePktSize::1               0                       # Write request sizes (log2) (Count)
system.loc_mem_ctrlrs.writePktSize::2               0                       # Write request sizes (log2) (Count)
system.loc_mem_ctrlrs.writePktSize::3               0                       # Write request sizes (log2) (Count)
system.loc_mem_ctrlrs.writePktSize::4               0                       # Write request sizes (log2) (Count)
system.loc_mem_ctrlrs.writePktSize::5               0                       # Write request sizes (log2) (Count)
system.loc_mem_ctrlrs.writePktSize::6            1673                       # Write request sizes (log2) (Count)
system.loc_mem_ctrlrs.rdQLenPdf::0               1268                       # What read queue length does an incoming req see (Count)
system.loc_mem_ctrlrs.rdQLenPdf::1                181                       # What read queue length does an incoming req see (Count)
system.loc_mem_ctrlrs.rdQLenPdf::2                174                       # What read queue length does an incoming req see (Count)
system.loc_mem_ctrlrs.rdQLenPdf::3                 44                       # What read queue length does an incoming req see (Count)
system.loc_mem_ctrlrs.rdQLenPdf::4                  6                       # What read queue length does an incoming req see (Count)
system.loc_mem_ctrlrs.rdQLenPdf::5                  2                       # What read queue length does an incoming req see (Count)
system.loc_mem_ctrlrs.rdQLenPdf::6                  2                       # What read queue length does an incoming req see (Count)
system.loc_mem_ctrlrs.rdQLenPdf::7                  0                       # What read queue length does an incoming req see (Count)
system.loc_mem_ctrlrs.rdQLenPdf::8                  0                       # What read queue length does an incoming req see (Count)
system.loc_mem_ctrlrs.rdQLenPdf::9                  0                       # What read queue length does an incoming req see (Count)
system.loc_mem_ctrlrs.rdQLenPdf::10                 0                       # What read queue length does an incoming req see (Count)
system.loc_mem_ctrlrs.rdQLenPdf::11                 0                       # What read queue length does an incoming req see (Count)
system.loc_mem_ctrlrs.rdQLenPdf::12                 0                       # What read queue length does an incoming req see (Count)
system.loc_mem_ctrlrs.rdQLenPdf::13                 0                       # What read queue length does an incoming req see (Count)
system.loc_mem_ctrlrs.rdQLenPdf::14                 0                       # What read queue length does an incoming req see (Count)
system.loc_mem_ctrlrs.rdQLenPdf::15                 0                       # What read queue length does an incoming req see (Count)
system.loc_mem_ctrlrs.rdQLenPdf::16                 0                       # What read queue length does an incoming req see (Count)
system.loc_mem_ctrlrs.rdQLenPdf::17                 0                       # What read queue length does an incoming req see (Count)
system.loc_mem_ctrlrs.rdQLenPdf::18                 0                       # What read queue length does an incoming req see (Count)
system.loc_mem_ctrlrs.rdQLenPdf::19                 0                       # What read queue length does an incoming req see (Count)
system.loc_mem_ctrlrs.rdQLenPdf::20                 0                       # What read queue length does an incoming req see (Count)
system.loc_mem_ctrlrs.rdQLenPdf::21                 0                       # What read queue length does an incoming req see (Count)
system.loc_mem_ctrlrs.rdQLenPdf::22                 0                       # What read queue length does an incoming req see (Count)
system.loc_mem_ctrlrs.rdQLenPdf::23                 0                       # What read queue length does an incoming req see (Count)
system.loc_mem_ctrlrs.rdQLenPdf::24                 0                       # What read queue length does an incoming req see (Count)
system.loc_mem_ctrlrs.rdQLenPdf::25                 0                       # What read queue length does an incoming req see (Count)
system.loc_mem_ctrlrs.rdQLenPdf::26                 0                       # What read queue length does an incoming req see (Count)
system.loc_mem_ctrlrs.rdQLenPdf::27                 0                       # What read queue length does an incoming req see (Count)
system.loc_mem_ctrlrs.rdQLenPdf::28                 0                       # What read queue length does an incoming req see (Count)
system.loc_mem_ctrlrs.rdQLenPdf::29                 0                       # What read queue length does an incoming req see (Count)
system.loc_mem_ctrlrs.rdQLenPdf::30                 0                       # What read queue length does an incoming req see (Count)
system.loc_mem_ctrlrs.rdQLenPdf::31                 0                       # What read queue length does an incoming req see (Count)
system.loc_mem_ctrlrs.wrQLenPdf::0                  1                       # What write queue length does an incoming req see (Count)
system.loc_mem_ctrlrs.wrQLenPdf::1                  1                       # What write queue length does an incoming req see (Count)
system.loc_mem_ctrlrs.wrQLenPdf::2                  1                       # What write queue length does an incoming req see (Count)
system.loc_mem_ctrlrs.wrQLenPdf::3                  1                       # What write queue length does an incoming req see (Count)
system.loc_mem_ctrlrs.wrQLenPdf::4                  1                       # What write queue length does an incoming req see (Count)
system.loc_mem_ctrlrs.wrQLenPdf::5                  1                       # What write queue length does an incoming req see (Count)
system.loc_mem_ctrlrs.wrQLenPdf::6                  1                       # What write queue length does an incoming req see (Count)
system.loc_mem_ctrlrs.wrQLenPdf::7                  1                       # What write queue length does an incoming req see (Count)
system.loc_mem_ctrlrs.wrQLenPdf::8                  1                       # What write queue length does an incoming req see (Count)
system.loc_mem_ctrlrs.wrQLenPdf::9                  1                       # What write queue length does an incoming req see (Count)
system.loc_mem_ctrlrs.wrQLenPdf::10                 1                       # What write queue length does an incoming req see (Count)
system.loc_mem_ctrlrs.wrQLenPdf::11                 1                       # What write queue length does an incoming req see (Count)
system.loc_mem_ctrlrs.wrQLenPdf::12                 1                       # What write queue length does an incoming req see (Count)
system.loc_mem_ctrlrs.wrQLenPdf::13                 1                       # What write queue length does an incoming req see (Count)
system.loc_mem_ctrlrs.wrQLenPdf::14                 1                       # What write queue length does an incoming req see (Count)
system.loc_mem_ctrlrs.wrQLenPdf::15                 1                       # What write queue length does an incoming req see (Count)
system.loc_mem_ctrlrs.wrQLenPdf::16                 1                       # What write queue length does an incoming req see (Count)
system.loc_mem_ctrlrs.wrQLenPdf::17                 7                       # What write queue length does an incoming req see (Count)
system.loc_mem_ctrlrs.wrQLenPdf::18                47                       # What write queue length does an incoming req see (Count)
system.loc_mem_ctrlrs.wrQLenPdf::19               118                       # What write queue length does an incoming req see (Count)
system.loc_mem_ctrlrs.wrQLenPdf::20               121                       # What write queue length does an incoming req see (Count)
system.loc_mem_ctrlrs.wrQLenPdf::21               113                       # What write queue length does an incoming req see (Count)
system.loc_mem_ctrlrs.wrQLenPdf::22               107                       # What write queue length does an incoming req see (Count)
system.loc_mem_ctrlrs.wrQLenPdf::23               109                       # What write queue length does an incoming req see (Count)
system.loc_mem_ctrlrs.wrQLenPdf::24               146                       # What write queue length does an incoming req see (Count)
system.loc_mem_ctrlrs.wrQLenPdf::25               140                       # What write queue length does an incoming req see (Count)
system.loc_mem_ctrlrs.wrQLenPdf::26               111                       # What write queue length does an incoming req see (Count)
system.loc_mem_ctrlrs.wrQLenPdf::27               106                       # What write queue length does an incoming req see (Count)
system.loc_mem_ctrlrs.wrQLenPdf::28               103                       # What write queue length does an incoming req see (Count)
system.loc_mem_ctrlrs.wrQLenPdf::29               106                       # What write queue length does an incoming req see (Count)
system.loc_mem_ctrlrs.wrQLenPdf::30               106                       # What write queue length does an incoming req see (Count)
system.loc_mem_ctrlrs.wrQLenPdf::31               104                       # What write queue length does an incoming req see (Count)
system.loc_mem_ctrlrs.wrQLenPdf::32               104                       # What write queue length does an incoming req see (Count)
system.loc_mem_ctrlrs.wrQLenPdf::33                 5                       # What write queue length does an incoming req see (Count)
system.loc_mem_ctrlrs.wrQLenPdf::34                 2                       # What write queue length does an incoming req see (Count)
system.loc_mem_ctrlrs.wrQLenPdf::35                 1                       # What write queue length does an incoming req see (Count)
system.loc_mem_ctrlrs.wrQLenPdf::36                 0                       # What write queue length does an incoming req see (Count)
system.loc_mem_ctrlrs.wrQLenPdf::37                 0                       # What write queue length does an incoming req see (Count)
system.loc_mem_ctrlrs.wrQLenPdf::38                 0                       # What write queue length does an incoming req see (Count)
system.loc_mem_ctrlrs.wrQLenPdf::39                 0                       # What write queue length does an incoming req see (Count)
system.loc_mem_ctrlrs.wrQLenPdf::40                 0                       # What write queue length does an incoming req see (Count)
system.loc_mem_ctrlrs.wrQLenPdf::41                 0                       # What write queue length does an incoming req see (Count)
system.loc_mem_ctrlrs.wrQLenPdf::42                 0                       # What write queue length does an incoming req see (Count)
system.loc_mem_ctrlrs.wrQLenPdf::43                 0                       # What write queue length does an incoming req see (Count)
system.loc_mem_ctrlrs.wrQLenPdf::44                 0                       # What write queue length does an incoming req see (Count)
system.loc_mem_ctrlrs.wrQLenPdf::45                 0                       # What write queue length does an incoming req see (Count)
system.loc_mem_ctrlrs.wrQLenPdf::46                 0                       # What write queue length does an incoming req see (Count)
system.loc_mem_ctrlrs.wrQLenPdf::47                 0                       # What write queue length does an incoming req see (Count)
system.loc_mem_ctrlrs.wrQLenPdf::48                 0                       # What write queue length does an incoming req see (Count)
system.loc_mem_ctrlrs.wrQLenPdf::49                 0                       # What write queue length does an incoming req see (Count)
system.loc_mem_ctrlrs.wrQLenPdf::50                 0                       # What write queue length does an incoming req see (Count)
system.loc_mem_ctrlrs.wrQLenPdf::51                 0                       # What write queue length does an incoming req see (Count)
system.loc_mem_ctrlrs.wrQLenPdf::52                 0                       # What write queue length does an incoming req see (Count)
system.loc_mem_ctrlrs.wrQLenPdf::53                 0                       # What write queue length does an incoming req see (Count)
system.loc_mem_ctrlrs.wrQLenPdf::54                 0                       # What write queue length does an incoming req see (Count)
system.loc_mem_ctrlrs.wrQLenPdf::55                 0                       # What write queue length does an incoming req see (Count)
system.loc_mem_ctrlrs.wrQLenPdf::56                 0                       # What write queue length does an incoming req see (Count)
system.loc_mem_ctrlrs.wrQLenPdf::57                 0                       # What write queue length does an incoming req see (Count)
system.loc_mem_ctrlrs.wrQLenPdf::58                 0                       # What write queue length does an incoming req see (Count)
system.loc_mem_ctrlrs.wrQLenPdf::59                 0                       # What write queue length does an incoming req see (Count)
system.loc_mem_ctrlrs.wrQLenPdf::60                 0                       # What write queue length does an incoming req see (Count)
system.loc_mem_ctrlrs.wrQLenPdf::61                 0                       # What write queue length does an incoming req see (Count)
system.loc_mem_ctrlrs.wrQLenPdf::62                 0                       # What write queue length does an incoming req see (Count)
system.loc_mem_ctrlrs.wrQLenPdf::63                 0                       # What write queue length does an incoming req see (Count)
system.loc_mem_ctrlrs.rdPerTurnAround::samples          103                       # Reads before turning the bus around for writes (Count)
system.loc_mem_ctrlrs.rdPerTurnAround::mean    16.203883                       # Reads before turning the bus around for writes (Count)
system.loc_mem_ctrlrs.rdPerTurnAround::gmean    16.109102                       # Reads before turning the bus around for writes (Count)
system.loc_mem_ctrlrs.rdPerTurnAround::stdev     2.228862                       # Reads before turning the bus around for writes (Count)
system.loc_mem_ctrlrs.rdPerTurnAround::12-13            1      0.97%      0.97% # Reads before turning the bus around for writes (Count)
system.loc_mem_ctrlrs.rdPerTurnAround::14-15           15     14.56%     15.53% # Reads before turning the bus around for writes (Count)
system.loc_mem_ctrlrs.rdPerTurnAround::16-17           82     79.61%     95.15% # Reads before turning the bus around for writes (Count)
system.loc_mem_ctrlrs.rdPerTurnAround::18-19            4      3.88%     99.03% # Reads before turning the bus around for writes (Count)
system.loc_mem_ctrlrs.rdPerTurnAround::36-37            1      0.97%    100.00% # Reads before turning the bus around for writes (Count)
system.loc_mem_ctrlrs.rdPerTurnAround::total          103                       # Reads before turning the bus around for writes (Count)
system.loc_mem_ctrlrs.wrPerTurnAround::samples          103                       # Writes before turning the bus around for reads (Count)
system.loc_mem_ctrlrs.wrPerTurnAround::mean           16                       # Writes before turning the bus around for reads (Count)
system.loc_mem_ctrlrs.wrPerTurnAround::gmean    16.000000                       # Writes before turning the bus around for reads (Count)
system.loc_mem_ctrlrs.wrPerTurnAround::16          103    100.00%    100.00% # Writes before turning the bus around for reads (Count)
system.loc_mem_ctrlrs.wrPerTurnAround::total          103                       # Writes before turning the bus around for reads (Count)
system.loc_mem_ctrlrs.bytesReadWrQ                  0                       # Total number of bytes read from write queue (Byte)
system.loc_mem_ctrlrs.bytesReadSys             107328                       # Total read bytes from the system interface side (Byte)
system.loc_mem_ctrlrs.bytesWrittenSys          107072                       # Total written bytes from the system interface side (Byte)
system.loc_mem_ctrlrs.avgRdBWSys         1073280010.73280013                       # Average system read bandwidth in Byte/s ((Byte/Second))
system.loc_mem_ctrlrs.avgWrBWSys         1070720010.70720017                       # Average system write bandwidth in Byte/s ((Byte/Second))
system.loc_mem_ctrlrs.totGap                 99918396                       # Total gap between requests (Tick)
system.loc_mem_ctrlrs.avgGap                 29826.39                       # Average gap between requests ((Tick/Count))
system.loc_mem_ctrlrs.requestorReadBytes::writebacks       107328                       # Per-requestor bytes read from memory (Byte)
system.loc_mem_ctrlrs.requestorWriteBytes::writebacks       105472                       # Per-requestor bytes write to memory (Byte)
system.loc_mem_ctrlrs.requestorReadRate::writebacks 1073280010.732800126076                       # Per-requestor bytes read from memory rate ((Byte/Second))
system.loc_mem_ctrlrs.requestorWriteRate::writebacks 1054720010.547200202942                       # Per-requestor bytes write to memory rate ((Byte/Second))
system.loc_mem_ctrlrs.requestorReadAccesses::writebacks         1677                       # Per-requestor read serviced memory accesses (Count)
system.loc_mem_ctrlrs.requestorWriteAccesses::writebacks         1673                       # Per-requestor write serviced memory accesses (Count)
system.loc_mem_ctrlrs.requestorReadTotalLat::writebacks    112560780                       # Per-requestor read total memory access latency (Tick)
system.loc_mem_ctrlrs.requestorWriteTotalLat::writebacks   2533620584                       # Per-requestor write total memory access latency (Tick)
system.loc_mem_ctrlrs.requestorReadAvgLat::writebacks     67120.32                       # Per-requestor read average memory access latency ((Tick/Count))
system.loc_mem_ctrlrs.requestorWriteAvgLat::writebacks   1514417.56                       # Per-requestor write average memory access latency ((Tick/Count))
system.loc_mem_ctrlrs.dram.bytesRead::writebacks       107264                       # Number of bytes read from this memory (Byte)
system.loc_mem_ctrlrs.dram.bytesRead::total       107264                       # Number of bytes read from this memory (Byte)
system.loc_mem_ctrlrs.dram.bytesWritten::writebacks       107072                       # Number of bytes written to this memory (Byte)
system.loc_mem_ctrlrs.dram.bytesWritten::total       107072                       # Number of bytes written to this memory (Byte)
system.loc_mem_ctrlrs.dram.numReads::writebacks         1676                       # Number of read requests responded to by this memory (Count)
system.loc_mem_ctrlrs.dram.numReads::total         1676                       # Number of read requests responded to by this memory (Count)
system.loc_mem_ctrlrs.dram.numWrites::writebacks         1673                       # Number of write requests responded to by this memory (Count)
system.loc_mem_ctrlrs.dram.numWrites::total         1673                       # Number of write requests responded to by this memory (Count)
system.loc_mem_ctrlrs.dram.bwRead::writebacks   1072640011                       # Total read bandwidth from this memory ((Byte/Second))
system.loc_mem_ctrlrs.dram.bwRead::total   1072640011                       # Total read bandwidth from this memory ((Byte/Second))
system.loc_mem_ctrlrs.dram.bwWrite::writebacks   1070720011                       # Write bandwidth from this memory ((Byte/Second))
system.loc_mem_ctrlrs.dram.bwWrite::total   1070720011                       # Write bandwidth from this memory ((Byte/Second))
system.loc_mem_ctrlrs.dram.bwTotal::writebacks   2143360021                       # Total bandwidth to/from this memory ((Byte/Second))
system.loc_mem_ctrlrs.dram.bwTotal::total   2143360021                       # Total bandwidth to/from this memory ((Byte/Second))
system.loc_mem_ctrlrs.dram.readBursts            1677                       # Number of DRAM read bursts (Count)
system.loc_mem_ctrlrs.dram.writeBursts           1648                       # Number of DRAM write bursts (Count)
system.loc_mem_ctrlrs.dram.perBankRdBursts::0          229                       # Per bank write bursts (Count)
system.loc_mem_ctrlrs.dram.perBankRdBursts::1          215                       # Per bank write bursts (Count)
system.loc_mem_ctrlrs.dram.perBankRdBursts::2          217                       # Per bank write bursts (Count)
system.loc_mem_ctrlrs.dram.perBankRdBursts::3          203                       # Per bank write bursts (Count)
system.loc_mem_ctrlrs.dram.perBankRdBursts::4          178                       # Per bank write bursts (Count)
system.loc_mem_ctrlrs.dram.perBankRdBursts::5          201                       # Per bank write bursts (Count)
system.loc_mem_ctrlrs.dram.perBankRdBursts::6          195                       # Per bank write bursts (Count)
system.loc_mem_ctrlrs.dram.perBankRdBursts::7          239                       # Per bank write bursts (Count)
system.loc_mem_ctrlrs.dram.perBankWrBursts::0          224                       # Per bank write bursts (Count)
system.loc_mem_ctrlrs.dram.perBankWrBursts::1          209                       # Per bank write bursts (Count)
system.loc_mem_ctrlrs.dram.perBankWrBursts::2          217                       # Per bank write bursts (Count)
system.loc_mem_ctrlrs.dram.perBankWrBursts::3          199                       # Per bank write bursts (Count)
system.loc_mem_ctrlrs.dram.perBankWrBursts::4          173                       # Per bank write bursts (Count)
system.loc_mem_ctrlrs.dram.perBankWrBursts::5          199                       # Per bank write bursts (Count)
system.loc_mem_ctrlrs.dram.perBankWrBursts::6          194                       # Per bank write bursts (Count)
system.loc_mem_ctrlrs.dram.perBankWrBursts::7          233                       # Per bank write bursts (Count)
system.loc_mem_ctrlrs.dram.totQLat           80697780                       # Total ticks spent queuing (Tick)
system.loc_mem_ctrlrs.dram.totBusLat          6708000                       # Total ticks spent in databus transfers (Tick)
system.loc_mem_ctrlrs.dram.totMemAccLat     112560780                       # Total ticks spent from burst creation until serviced by the DRAM (Tick)
system.loc_mem_ctrlrs.dram.avgQLat           48120.32                       # Average queueing delay per DRAM burst ((Tick/Count))
system.loc_mem_ctrlrs.dram.avgBusLat          4000.00                       # Average bus latency per DRAM burst ((Tick/Count))
system.loc_mem_ctrlrs.dram.avgMemAccLat      67120.32                       # Average memory access latency per DRAM burst ((Tick/Count))
system.loc_mem_ctrlrs.dram.readRowHits              0                       # Number of row buffer hits during reads (Count)
system.loc_mem_ctrlrs.dram.writeRowHits           327                       # Number of row buffer hits during writes (Count)
system.loc_mem_ctrlrs.dram.readRowHitRate         0.00                       # Row buffer hit rate for reads (Ratio)
system.loc_mem_ctrlrs.dram.writeRowHitRate        19.84                       # Row buffer hit rate for writes (Ratio)
system.loc_mem_ctrlrs.dram.bytesPerActivate::samples         2992                       # Bytes accessed per row activation (Byte)
system.loc_mem_ctrlrs.dram.bytesPerActivate::mean    70.994652                       # Bytes accessed per row activation (Byte)
system.loc_mem_ctrlrs.dram.bytesPerActivate::gmean    69.036693                       # Bytes accessed per row activation (Byte)
system.loc_mem_ctrlrs.dram.bytesPerActivate::stdev    19.971627                       # Bytes accessed per row activation (Byte)
system.loc_mem_ctrlrs.dram.bytesPerActivate::64-79         2665     89.07%     89.07% # Bytes accessed per row activation (Byte)
system.loc_mem_ctrlrs.dram.bytesPerActivate::128-143          327     10.93%    100.00% # Bytes accessed per row activation (Byte)
system.loc_mem_ctrlrs.dram.bytesPerActivate::total         2992                       # Bytes accessed per row activation (Byte)
system.loc_mem_ctrlrs.dram.bytesRead           107328                       # Total bytes read (Byte)
system.loc_mem_ctrlrs.dram.bytesWritten        105472                       # Total bytes written (Byte)
system.loc_mem_ctrlrs.dram.avgRdBW        1073.280011                       # Average DRAM read bandwidth in MiBytes/s ((Byte/Second))
system.loc_mem_ctrlrs.dram.avgWrBW        1054.720011                       # Average DRAM write bandwidth in MiBytes/s ((Byte/Second))
system.loc_mem_ctrlrs.dram.peakBW            16000.00                       # Theoretical peak bandwidth in MiByte/s ((Byte/Second))
system.loc_mem_ctrlrs.dram.busUtil              13.30                       # Data bus utilization in percentage (Ratio)
system.loc_mem_ctrlrs.dram.busUtilRead           6.71                       # Data bus utilization in percentage for reads (Ratio)
system.loc_mem_ctrlrs.dram.busUtilWrite          6.59                       # Data bus utilization in percentage for writes (Ratio)
system.loc_mem_ctrlrs.dram.pageHitRate           9.83                       # Row buffer hit rate, read and write combined (Ratio)
system.loc_mem_ctrlrs.dram.power_state.pwrStateResidencyTicks::UNDEFINED     99999999                       # Cumulative time (in ticks) in various power states (Tick)
system.loc_mem_ctrlrs.dram.rank0.actEnergy            0                       # Energy for activate commands per rank (pJ) (Joule)
system.loc_mem_ctrlrs.dram.rank0.preEnergy            0                       # Energy for precharge commands per rank (pJ) (Joule)
system.loc_mem_ctrlrs.dram.rank0.readEnergy            0                       # Energy for read commands per rank (pJ) (Joule)
system.loc_mem_ctrlrs.dram.rank0.writeEnergy            0                       # Energy for write commands per rank (pJ) (Joule)
system.loc_mem_ctrlrs.dram.rank0.refreshEnergy            0                       # Energy for refresh commands per rank (pJ) (Joule)
system.loc_mem_ctrlrs.dram.rank0.actBackEnergy            0                       # Energy for active background per rank (pJ) (Joule)
system.loc_mem_ctrlrs.dram.rank0.preBackEnergy            0                       # Energy for precharge background per rank (pJ) (Joule)
system.loc_mem_ctrlrs.dram.rank0.actPowerDownEnergy            0                       # Energy for active power-down per rank (pJ) (Joule)
system.loc_mem_ctrlrs.dram.rank0.prePowerDownEnergy            0                       # Energy for precharge power-down per rank (pJ) (Joule)
system.loc_mem_ctrlrs.dram.rank0.selfRefreshEnergy            0                       # Energy for self refresh per rank (pJ) (Joule)
system.loc_mem_ctrlrs.dram.rank0.totalEnergy            0                       # Total energy per rank (pJ) (Joule)
system.loc_mem_ctrlrs.dram.rank0.averagePower            0                       # Core power per rank (mW) (Watt)
system.loc_mem_ctrlrs.dram.rank0.totalIdleTime            0                       # Total Idle time Per DRAM Rank (Tick)
system.loc_mem_ctrlrs.dram.rank0.pwrStateTime::IDLE        59604                       # Time in different power states (Tick)
system.loc_mem_ctrlrs.dram.rank0.pwrStateTime::REF      4000000                       # Time in different power states (Tick)
system.loc_mem_ctrlrs.dram.rank0.pwrStateTime::SREF            0                       # Time in different power states (Tick)
system.loc_mem_ctrlrs.dram.rank0.pwrStateTime::PRE_PDN            0                       # Time in different power states (Tick)
system.loc_mem_ctrlrs.dram.rank0.pwrStateTime::ACT     95940395                       # Time in different power states (Tick)
system.loc_mem_ctrlrs.dram.rank0.pwrStateTime::ACT_PDN            0                       # Time in different power states (Tick)
system.loc_mem_ctrlrs.power_state.pwrStateResidencyTicks::UNDEFINED     99999999                       # Cumulative time (in ticks) in various power states (Tick)
system.mem_ctrl.bytesRead::generators          107072                       # Number of bytes read from this memory (Byte)
system.mem_ctrl.bytesRead::total               107072                       # Number of bytes read from this memory (Byte)
system.mem_ctrl.numReads::generators             1673                       # Number of read requests responded to by this memory (Count)
system.mem_ctrl.numReads::total                  1673                       # Number of read requests responded to by this memory (Count)
system.mem_ctrl.bwRead::generators         1070720011                       # Total read bandwidth from this memory ((Byte/Second))
system.mem_ctrl.bwRead::total              1070720011                       # Total read bandwidth from this memory ((Byte/Second))
system.mem_ctrl.bwTotal::generators        1070720011                       # Total bandwidth to/from this memory ((Byte/Second))
system.mem_ctrl.bwTotal::total             1070720011                       # Total bandwidth to/from this memory ((Byte/Second))
system.mem_ctrl.readReqs                         1677                       # Number of read requests accepted (Count)
system.mem_ctrl.writeReqs                           0                       # Number of write requests accepted (Count)
system.mem_ctrl.servicedByWrQ                       0                       # Number of controller read bursts serviced by the write queue (Count)
system.mem_ctrl.mergedWrBursts                      0                       # Number of controller write bursts merged with an existing one (Count)
system.mem_ctrl.numRdRetry                          0                       # Number of times read queue was full causing retry (Count)
system.mem_ctrl.numWrRetry                          0                       # Number of times write queue was full causing retry (Count)
system.mem_ctrl.readPktSize::0                      0                       # Read request sizes (log2) (Count)
system.mem_ctrl.readPktSize::1                      0                       # Read request sizes (log2) (Count)
system.mem_ctrl.readPktSize::2                      0                       # Read request sizes (log2) (Count)
system.mem_ctrl.readPktSize::3                      0                       # Read request sizes (log2) (Count)
system.mem_ctrl.readPktSize::4                      0                       # Read request sizes (log2) (Count)
system.mem_ctrl.readPktSize::5                      0                       # Read request sizes (log2) (Count)
system.mem_ctrl.readPktSize::6                   1677                       # Read request sizes (log2) (Count)
system.mem_ctrl.writePktSize::0                     0                       # Write request sizes (log2) (Count)
system.mem_ctrl.writePktSize::1                     0                       # Write request sizes (log2) (Count)
system.mem_ctrl.writePktSize::2                     0                       # Write request sizes (log2) (Count)
system.mem_ctrl.writePktSize::3                     0                       # Write request sizes (log2) (Count)
system.mem_ctrl.writePktSize::4                     0                       # Write request sizes (log2) (Count)
system.mem_ctrl.writePktSize::5                     0                       # Write request sizes (log2) (Count)
system.mem_ctrl.writePktSize::6                     0                       # Write request sizes (log2) (Count)
system.mem_ctrl.bytesReadWrQ                        0                       # Total number of bytes read from write queue (Byte)
system.mem_ctrl.bytesReadSys                   107328                       # Total read bytes from the system interface side (Byte)
system.mem_ctrl.bytesWrittenSys                     0                       # Total written bytes from the system interface side (Byte)
system.mem_ctrl.avgRdBWSys               1073280010.73280013                       # Average system read bandwidth in Byte/s ((Byte/Second))
system.mem_ctrl.avgWrBWSys                 0.00000000                       # Average system write bandwidth in Byte/s ((Byte/Second))
system.mem_ctrl.totGap                   18446604025076119552                       # Total gap between requests (Tick)
system.mem_ctrl.avgGap                   10999763878995898.00                       # Average gap between requests ((Tick/Count))
system.mem_ctrl.avgORBLen                      5.4789                       # Average ORB length ((Count/Tick))
system.mem_ctrl.avgLocRdQLenStrt                 0.00                       # Average local read queue length ((Count/Tick))
system.mem_ctrl.avgLocWrQLenStrt                 0.00                       # Average local write queue length ((Count/Tick))
system.mem_ctrl.avgFarRdQLenStrt                 0.00                       # Average far read queue length ((Count/Tick))
system.mem_ctrl.avgFarWrQLenStrt                 0.00                       # Average far write queue length ((Count/Tick))
system.mem_ctrl.avgLocRdQLenEnq                  1.00                       # Average local read queue length when enqueuing ((Count/Tick))
system.mem_ctrl.avgLocWrQLenEnq                  1.00                       # Average local write queue length when enqueuing ((Count/Tick))
system.mem_ctrl.avgFarRdQLenEnq                  1.00                       # Average far read queue length when enqueuing ((Count/Tick))
system.mem_ctrl.avgFarWrQLenEnq                  0.00                       # Average far write queue length when enqueuing ((Count/Tick))
system.mem_ctrl.numWrBacks                          0                       # Total number of write backs from DRAM cache to main memory (Unspecified)
system.mem_ctrl.totNumConf                          0                       # Total number of packets conflicted on DRAM cache (Unspecified)
system.mem_ctrl.totNumORBFull                       0                       # Total number of packets ORB full (Unspecified)
system.mem_ctrl.totNumCRBFull                       0                       # Total number of packets conflicted yet couldn't enter confBuffer (Unspecified)
system.mem_ctrl.maxNumConf                          0                       # Maximum number of packets conflicted on DRAM cache (Unspecified)
system.mem_ctrl.sentLocRdPort                    1677                       # stat (Unspecified)
system.mem_ctrl.sentLocWrPort                    1673                       # stat (Unspecified)
system.mem_ctrl.failedLocRdPort                     0                       # stat (Unspecified)
system.mem_ctrl.failedLocWrPort                     0                       # stat (Unspecified)
system.mem_ctrl.recvdRdPort                         0                       # stat (Unspecified)
system.mem_ctrl.sentFarRdPort                    1676                       # stat (Unspecified)
system.mem_ctrl.sentFarWrPort                       0                       # stat (Unspecified)
system.mem_ctrl.failedFarRdPort                     0                       # stat (Unspecified)
system.mem_ctrl.failedFarWrPort                     0                       # stat (Unspecified)
system.mem_ctrl.totPktsServiceTime             495521                       # stat (Unspecified)
system.mem_ctrl.totPktsORBTime                 495521                       # stat (Unspecified)
system.mem_ctrl.totTimeFarRdtoSend                  0                       # stat (Unspecified)
system.mem_ctrl.totTimeFarRdtoRecv             333172                       # stat (Unspecified)
system.mem_ctrl.totTimeFarWrtoSend                  0                       # stat (Unspecified)
system.mem_ctrl.totTimeInLocRead               145599                       # stat (Unspecified)
system.mem_ctrl.totTimeInLocWrite               16730                       # stat (Unspecified)
system.mem_ctrl.totTimeInFarRead               333172                       # stat (Unspecified)
system.mem_ctrl.numTotHits                          0                       # stat (Unspecified)
system.mem_ctrl.numTotMisses                     1677                       # stat (Unspecified)
system.mem_ctrl.numColdMisses                    1677                       # stat (Unspecified)
system.mem_ctrl.numHotMisses                        0                       # stat (Unspecified)
system.mem_ctrl.numRdMissClean                   1677                       # stat (Unspecified)
system.mem_ctrl.numRdMissDirty                      0                       # stat (Unspecified)
system.mem_ctrl.numRdHit                            0                       # stat (Unspecified)
system.mem_ctrl.numWrMissClean                      0                       # stat (Unspecified)
system.mem_ctrl.numWrMissDirty                      0                       # stat (Unspecified)
system.mem_ctrl.numWrHit                            0                       # stat (Unspecified)
system.mem_ctrl.numRdHitDirty                       0                       # stat (Unspecified)
system.mem_ctrl.numRdHitClean                       0                       # stat (Unspecified)
system.mem_ctrl.numWrHitDirty                       0                       # stat (Unspecified)
system.mem_ctrl.numWrHitClean                       0                       # stat (Unspecified)
system.mem_ctrl.power_state.pwrStateResidencyTicks::UNDEFINED     99999999                       # Cumulative time (in ticks) in various power states (Tick)
system.membusPolManFarMem.transDist::ReadReq         1676                       # Transaction distribution (Count)
system.membusPolManFarMem.transDist::ReadResp         1673                       # Transaction distribution (Count)
system.membusPolManFarMem.pktCount_system.mem_ctrl.far_req_port::system.far_mem_ctrl.port         3349                       # Packet count per connected requestor and responder (Count)
system.membusPolManFarMem.pktSize_system.mem_ctrl.far_req_port::system.far_mem_ctrl.port       107072                       # Cumulative packet size per connected requestor and responder (Byte)
system.membusPolManFarMem.snoops                    0                       # Total snoops (Count)
system.membusPolManFarMem.snoopTraffic              0                       # Total snoop traffic (Byte)
system.membusPolManFarMem.snoopFanout::samples         1676                       # Request fanout histogram (Count)
system.membusPolManFarMem.snoopFanout::mean            0                       # Request fanout histogram (Count)
system.membusPolManFarMem.snoopFanout::stdev            0                       # Request fanout histogram (Count)
system.membusPolManFarMem.snoopFanout::underflows            0      0.00%      0.00% # Request fanout histogram (Count)
system.membusPolManFarMem.snoopFanout::0         1676    100.00%    100.00% # Request fanout histogram (Count)
system.membusPolManFarMem.snoopFanout::overflows            0      0.00%    100.00% # Request fanout histogram (Count)
system.membusPolManFarMem.snoopFanout::min_value            0                       # Request fanout histogram (Count)
system.membusPolManFarMem.snoopFanout::max_value            0                       # Request fanout histogram (Count)
system.membusPolManFarMem.snoopFanout::total         1676                       # Request fanout histogram (Count)
system.membusPolManFarMem.power_state.pwrStateResidencyTicks::UNDEFINED     99999999                       # Cumulative time (in ticks) in various power states (Tick)
system.membusPolManFarMem.reqLayer0.occupancy       492516                       # Layer occupancy (ticks) (Tick)
system.membusPolManFarMem.reqLayer0.utilization          0.0                       # Layer utilization (Ratio)
system.membusPolManFarMem.respLayer0.occupancy       851552                       # Layer occupancy (ticks) (Tick)
system.membusPolManFarMem.respLayer0.utilization          0.0                       # Layer utilization (Ratio)
system.membusPolManFarMem.snoop_filter.totRequests            0                       # Total number of requests made to the snoop filter. (Count)
system.membusPolManFarMem.snoop_filter.hitSingleRequests            0                       # Number of requests hitting in the snoop filter with a single holder of the requested data. (Count)
system.membusPolManFarMem.snoop_filter.hitMultiRequests            0                       # Number of requests hitting in the snoop filter with multiple (>1) holders of the requested data. (Count)
system.membusPolManFarMem.snoop_filter.totSnoops            0                       # Total number of snoops made to the snoop filter. (Count)
system.membusPolManFarMem.snoop_filter.hitSingleSnoops            0                       # Number of snoops hitting in the snoop filter with a single holder of the requested data. (Count)
system.membusPolManFarMem.snoop_filter.hitMultiSnoops            0                       # Number of snoops hitting in the snoop filter with multiple (>1) holders of the requested data. (Count)
system.workload.inst.arm                            0                       # number of arm instructions executed (Count)
system.workload.inst.quiesce                        0                       # number of quiesce instructions executed (Count)

---------- End Simulation Statistics   ----------
