
---------- Begin Simulation Statistics ----------
simSeconds                                   0.000100                       # Number of seconds simulated (Second)
simTicks                                    100008000                       # Number of ticks simulated (Tick)
finalTick                                   100008000                       # Number of ticks from beginning of simulation (restored from checkpoints and never reset) (Tick)
simFreq                                  1000000000000                       # The number of ticks per simulated second ((Tick/Second))
hostSeconds                                      0.28                       # Real time elapsed on the host (Second)
hostTickRate                                358533110                       # The number of ticks simulated per host second (ticks/s) ((Tick/Second))
hostMemory                                    8500640                       # Number of bytes of host memory used (Byte)
system.clk_domain.clock                           200                       # Clock period in ticks (Tick)
system.clk_domain.voltage_domain.voltage            1                       # Voltage in Volts (Volt)
system.far_mem_ctrl0.avgPriority_writebacks::samples      3335.00                       # Average QoS priority value for accepted requests (Count)
system.far_mem_ctrl0.priorityMinLatency  0.000000317492                       # per QoS priority minimum request to response latency (Second)
system.far_mem_ctrl0.priorityMaxLatency  0.000060832490                       # per QoS priority maximum request to response latency (Second)
system.far_mem_ctrl0.numReadWriteTurnArounds           23                       # Number of turnarounds from READ to WRITE (Count)
system.far_mem_ctrl0.numWriteReadTurnArounds           23                       # Number of turnarounds from WRITE to READ (Count)
system.far_mem_ctrl0.numStayReadState            9256                       # Number of times bus staying in READ state (Count)
system.far_mem_ctrl0.numStayWriteState            370                       # Number of times bus staying in WRITE state (Count)
system.far_mem_ctrl0.readReqs                    2848                       # Number of read requests accepted (Count)
system.far_mem_ctrl0.writeReqs                    487                       # Number of write requests accepted (Count)
system.far_mem_ctrl0.readBursts                  2848                       # Number of controller read bursts, including those serviced by the write queue (Count)
system.far_mem_ctrl0.writeBursts                  487                       # Number of controller write bursts, including those merged in the write queue (Count)
system.far_mem_ctrl0.servicedByWrQ                  0                       # Number of controller read bursts serviced by the write queue (Count)
system.far_mem_ctrl0.mergedWrBursts                 0                       # Number of controller write bursts merged with an existing one (Count)
system.far_mem_ctrl0.neitherReadNorWriteReqs            0                       # Number of requests that are neither read nor write (Count)
system.far_mem_ctrl0.avgRdQLen                  10.05                       # Average read queue length when enqueuing ((Count/Tick))
system.far_mem_ctrl0.avgWrQLen                  58.93                       # Average write queue length when enqueuing ((Count/Tick))
system.far_mem_ctrl0.numRdRetry                     0                       # Number of times read queue was full causing retry (Count)
system.far_mem_ctrl0.numWrRetry                     0                       # Number of times write queue was full causing retry (Count)
system.far_mem_ctrl0.readPktSize::0                 0                       # Read request sizes (log2) (Count)
system.far_mem_ctrl0.readPktSize::1                 0                       # Read request sizes (log2) (Count)
system.far_mem_ctrl0.readPktSize::2                 0                       # Read request sizes (log2) (Count)
system.far_mem_ctrl0.readPktSize::3                 0                       # Read request sizes (log2) (Count)
system.far_mem_ctrl0.readPktSize::4                 0                       # Read request sizes (log2) (Count)
system.far_mem_ctrl0.readPktSize::5                 0                       # Read request sizes (log2) (Count)
system.far_mem_ctrl0.readPktSize::6              2848                       # Read request sizes (log2) (Count)
system.far_mem_ctrl0.writePktSize::0                0                       # Write request sizes (log2) (Count)
system.far_mem_ctrl0.writePktSize::1                0                       # Write request sizes (log2) (Count)
system.far_mem_ctrl0.writePktSize::2                0                       # Write request sizes (log2) (Count)
system.far_mem_ctrl0.writePktSize::3                0                       # Write request sizes (log2) (Count)
system.far_mem_ctrl0.writePktSize::4                0                       # Write request sizes (log2) (Count)
system.far_mem_ctrl0.writePktSize::5                0                       # Write request sizes (log2) (Count)
system.far_mem_ctrl0.writePktSize::6              487                       # Write request sizes (log2) (Count)
system.far_mem_ctrl0.rdQLenPdf::0                  30                       # What read queue length does an incoming req see (Count)
system.far_mem_ctrl0.rdQLenPdf::1                  91                       # What read queue length does an incoming req see (Count)
system.far_mem_ctrl0.rdQLenPdf::2                 177                       # What read queue length does an incoming req see (Count)
system.far_mem_ctrl0.rdQLenPdf::3                 229                       # What read queue length does an incoming req see (Count)
system.far_mem_ctrl0.rdQLenPdf::4                 254                       # What read queue length does an incoming req see (Count)
system.far_mem_ctrl0.rdQLenPdf::5                 271                       # What read queue length does an incoming req see (Count)
system.far_mem_ctrl0.rdQLenPdf::6                 280                       # What read queue length does an incoming req see (Count)
system.far_mem_ctrl0.rdQLenPdf::7                 238                       # What read queue length does an incoming req see (Count)
system.far_mem_ctrl0.rdQLenPdf::8                 230                       # What read queue length does an incoming req see (Count)
system.far_mem_ctrl0.rdQLenPdf::9                 192                       # What read queue length does an incoming req see (Count)
system.far_mem_ctrl0.rdQLenPdf::10                159                       # What read queue length does an incoming req see (Count)
system.far_mem_ctrl0.rdQLenPdf::11                139                       # What read queue length does an incoming req see (Count)
system.far_mem_ctrl0.rdQLenPdf::12                117                       # What read queue length does an incoming req see (Count)
system.far_mem_ctrl0.rdQLenPdf::13                109                       # What read queue length does an incoming req see (Count)
system.far_mem_ctrl0.rdQLenPdf::14                 96                       # What read queue length does an incoming req see (Count)
system.far_mem_ctrl0.rdQLenPdf::15                 72                       # What read queue length does an incoming req see (Count)
system.far_mem_ctrl0.rdQLenPdf::16                 62                       # What read queue length does an incoming req see (Count)
system.far_mem_ctrl0.rdQLenPdf::17                 43                       # What read queue length does an incoming req see (Count)
system.far_mem_ctrl0.rdQLenPdf::18                 19                       # What read queue length does an incoming req see (Count)
system.far_mem_ctrl0.rdQLenPdf::19                 13                       # What read queue length does an incoming req see (Count)
system.far_mem_ctrl0.rdQLenPdf::20                  7                       # What read queue length does an incoming req see (Count)
system.far_mem_ctrl0.rdQLenPdf::21                  7                       # What read queue length does an incoming req see (Count)
system.far_mem_ctrl0.rdQLenPdf::22                  6                       # What read queue length does an incoming req see (Count)
system.far_mem_ctrl0.rdQLenPdf::23                  5                       # What read queue length does an incoming req see (Count)
system.far_mem_ctrl0.rdQLenPdf::24                  1                       # What read queue length does an incoming req see (Count)
system.far_mem_ctrl0.rdQLenPdf::25                  1                       # What read queue length does an incoming req see (Count)
system.far_mem_ctrl0.rdQLenPdf::26                  0                       # What read queue length does an incoming req see (Count)
system.far_mem_ctrl0.rdQLenPdf::27                  0                       # What read queue length does an incoming req see (Count)
system.far_mem_ctrl0.rdQLenPdf::28                  0                       # What read queue length does an incoming req see (Count)
system.far_mem_ctrl0.rdQLenPdf::29                  0                       # What read queue length does an incoming req see (Count)
system.far_mem_ctrl0.rdQLenPdf::30                  0                       # What read queue length does an incoming req see (Count)
system.far_mem_ctrl0.rdQLenPdf::31                  0                       # What read queue length does an incoming req see (Count)
system.far_mem_ctrl0.rdQLenPdf::32                  0                       # What read queue length does an incoming req see (Count)
system.far_mem_ctrl0.rdQLenPdf::33                  0                       # What read queue length does an incoming req see (Count)
system.far_mem_ctrl0.rdQLenPdf::34                  0                       # What read queue length does an incoming req see (Count)
system.far_mem_ctrl0.rdQLenPdf::35                  0                       # What read queue length does an incoming req see (Count)
system.far_mem_ctrl0.rdQLenPdf::36                  0                       # What read queue length does an incoming req see (Count)
system.far_mem_ctrl0.rdQLenPdf::37                  0                       # What read queue length does an incoming req see (Count)
system.far_mem_ctrl0.rdQLenPdf::38                  0                       # What read queue length does an incoming req see (Count)
system.far_mem_ctrl0.rdQLenPdf::39                  0                       # What read queue length does an incoming req see (Count)
system.far_mem_ctrl0.rdQLenPdf::40                  0                       # What read queue length does an incoming req see (Count)
system.far_mem_ctrl0.rdQLenPdf::41                  0                       # What read queue length does an incoming req see (Count)
system.far_mem_ctrl0.rdQLenPdf::42                  0                       # What read queue length does an incoming req see (Count)
system.far_mem_ctrl0.rdQLenPdf::43                  0                       # What read queue length does an incoming req see (Count)
system.far_mem_ctrl0.rdQLenPdf::44                  0                       # What read queue length does an incoming req see (Count)
system.far_mem_ctrl0.rdQLenPdf::45                  0                       # What read queue length does an incoming req see (Count)
system.far_mem_ctrl0.rdQLenPdf::46                  0                       # What read queue length does an incoming req see (Count)
system.far_mem_ctrl0.rdQLenPdf::47                  0                       # What read queue length does an incoming req see (Count)
system.far_mem_ctrl0.rdQLenPdf::48                  0                       # What read queue length does an incoming req see (Count)
system.far_mem_ctrl0.rdQLenPdf::49                  0                       # What read queue length does an incoming req see (Count)
system.far_mem_ctrl0.rdQLenPdf::50                  0                       # What read queue length does an incoming req see (Count)
system.far_mem_ctrl0.rdQLenPdf::51                  0                       # What read queue length does an incoming req see (Count)
system.far_mem_ctrl0.rdQLenPdf::52                  0                       # What read queue length does an incoming req see (Count)
system.far_mem_ctrl0.rdQLenPdf::53                  0                       # What read queue length does an incoming req see (Count)
system.far_mem_ctrl0.rdQLenPdf::54                  0                       # What read queue length does an incoming req see (Count)
system.far_mem_ctrl0.rdQLenPdf::55                  0                       # What read queue length does an incoming req see (Count)
system.far_mem_ctrl0.rdQLenPdf::56                  0                       # What read queue length does an incoming req see (Count)
system.far_mem_ctrl0.rdQLenPdf::57                  0                       # What read queue length does an incoming req see (Count)
system.far_mem_ctrl0.rdQLenPdf::58                  0                       # What read queue length does an incoming req see (Count)
system.far_mem_ctrl0.rdQLenPdf::59                  0                       # What read queue length does an incoming req see (Count)
system.far_mem_ctrl0.rdQLenPdf::60                  0                       # What read queue length does an incoming req see (Count)
system.far_mem_ctrl0.rdQLenPdf::61                  0                       # What read queue length does an incoming req see (Count)
system.far_mem_ctrl0.rdQLenPdf::62                  0                       # What read queue length does an incoming req see (Count)
system.far_mem_ctrl0.rdQLenPdf::63                  0                       # What read queue length does an incoming req see (Count)
system.far_mem_ctrl0.rdQLenPdf::64                  0                       # What read queue length does an incoming req see (Count)
system.far_mem_ctrl0.rdQLenPdf::65                  0                       # What read queue length does an incoming req see (Count)
system.far_mem_ctrl0.rdQLenPdf::66                  0                       # What read queue length does an incoming req see (Count)
system.far_mem_ctrl0.rdQLenPdf::67                  0                       # What read queue length does an incoming req see (Count)
system.far_mem_ctrl0.rdQLenPdf::68                  0                       # What read queue length does an incoming req see (Count)
system.far_mem_ctrl0.rdQLenPdf::69                  0                       # What read queue length does an incoming req see (Count)
system.far_mem_ctrl0.rdQLenPdf::70                  0                       # What read queue length does an incoming req see (Count)
system.far_mem_ctrl0.rdQLenPdf::71                  0                       # What read queue length does an incoming req see (Count)
system.far_mem_ctrl0.rdQLenPdf::72                  0                       # What read queue length does an incoming req see (Count)
system.far_mem_ctrl0.rdQLenPdf::73                  0                       # What read queue length does an incoming req see (Count)
system.far_mem_ctrl0.rdQLenPdf::74                  0                       # What read queue length does an incoming req see (Count)
system.far_mem_ctrl0.rdQLenPdf::75                  0                       # What read queue length does an incoming req see (Count)
system.far_mem_ctrl0.rdQLenPdf::76                  0                       # What read queue length does an incoming req see (Count)
system.far_mem_ctrl0.rdQLenPdf::77                  0                       # What read queue length does an incoming req see (Count)
system.far_mem_ctrl0.rdQLenPdf::78                  0                       # What read queue length does an incoming req see (Count)
system.far_mem_ctrl0.rdQLenPdf::79                  0                       # What read queue length does an incoming req see (Count)
system.far_mem_ctrl0.rdQLenPdf::80                  0                       # What read queue length does an incoming req see (Count)
system.far_mem_ctrl0.rdQLenPdf::81                  0                       # What read queue length does an incoming req see (Count)
system.far_mem_ctrl0.rdQLenPdf::82                  0                       # What read queue length does an incoming req see (Count)
system.far_mem_ctrl0.rdQLenPdf::83                  0                       # What read queue length does an incoming req see (Count)
system.far_mem_ctrl0.rdQLenPdf::84                  0                       # What read queue length does an incoming req see (Count)
system.far_mem_ctrl0.rdQLenPdf::85                  0                       # What read queue length does an incoming req see (Count)
system.far_mem_ctrl0.rdQLenPdf::86                  0                       # What read queue length does an incoming req see (Count)
system.far_mem_ctrl0.rdQLenPdf::87                  0                       # What read queue length does an incoming req see (Count)
system.far_mem_ctrl0.rdQLenPdf::88                  0                       # What read queue length does an incoming req see (Count)
system.far_mem_ctrl0.rdQLenPdf::89                  0                       # What read queue length does an incoming req see (Count)
system.far_mem_ctrl0.rdQLenPdf::90                  0                       # What read queue length does an incoming req see (Count)
system.far_mem_ctrl0.rdQLenPdf::91                  0                       # What read queue length does an incoming req see (Count)
system.far_mem_ctrl0.rdQLenPdf::92                  0                       # What read queue length does an incoming req see (Count)
system.far_mem_ctrl0.rdQLenPdf::93                  0                       # What read queue length does an incoming req see (Count)
system.far_mem_ctrl0.rdQLenPdf::94                  0                       # What read queue length does an incoming req see (Count)
system.far_mem_ctrl0.rdQLenPdf::95                  0                       # What read queue length does an incoming req see (Count)
system.far_mem_ctrl0.rdQLenPdf::96                  0                       # What read queue length does an incoming req see (Count)
system.far_mem_ctrl0.rdQLenPdf::97                  0                       # What read queue length does an incoming req see (Count)
system.far_mem_ctrl0.rdQLenPdf::98                  0                       # What read queue length does an incoming req see (Count)
system.far_mem_ctrl0.rdQLenPdf::99                  0                       # What read queue length does an incoming req see (Count)
system.far_mem_ctrl0.rdQLenPdf::100                 0                       # What read queue length does an incoming req see (Count)
system.far_mem_ctrl0.rdQLenPdf::101                 0                       # What read queue length does an incoming req see (Count)
system.far_mem_ctrl0.rdQLenPdf::102                 0                       # What read queue length does an incoming req see (Count)
system.far_mem_ctrl0.rdQLenPdf::103                 0                       # What read queue length does an incoming req see (Count)
system.far_mem_ctrl0.rdQLenPdf::104                 0                       # What read queue length does an incoming req see (Count)
system.far_mem_ctrl0.rdQLenPdf::105                 0                       # What read queue length does an incoming req see (Count)
system.far_mem_ctrl0.rdQLenPdf::106                 0                       # What read queue length does an incoming req see (Count)
system.far_mem_ctrl0.rdQLenPdf::107                 0                       # What read queue length does an incoming req see (Count)
system.far_mem_ctrl0.rdQLenPdf::108                 0                       # What read queue length does an incoming req see (Count)
system.far_mem_ctrl0.rdQLenPdf::109                 0                       # What read queue length does an incoming req see (Count)
system.far_mem_ctrl0.rdQLenPdf::110                 0                       # What read queue length does an incoming req see (Count)
system.far_mem_ctrl0.rdQLenPdf::111                 0                       # What read queue length does an incoming req see (Count)
system.far_mem_ctrl0.rdQLenPdf::112                 0                       # What read queue length does an incoming req see (Count)
system.far_mem_ctrl0.rdQLenPdf::113                 0                       # What read queue length does an incoming req see (Count)
system.far_mem_ctrl0.rdQLenPdf::114                 0                       # What read queue length does an incoming req see (Count)
system.far_mem_ctrl0.rdQLenPdf::115                 0                       # What read queue length does an incoming req see (Count)
system.far_mem_ctrl0.rdQLenPdf::116                 0                       # What read queue length does an incoming req see (Count)
system.far_mem_ctrl0.rdQLenPdf::117                 0                       # What read queue length does an incoming req see (Count)
system.far_mem_ctrl0.rdQLenPdf::118                 0                       # What read queue length does an incoming req see (Count)
system.far_mem_ctrl0.rdQLenPdf::119                 0                       # What read queue length does an incoming req see (Count)
system.far_mem_ctrl0.rdQLenPdf::120                 0                       # What read queue length does an incoming req see (Count)
system.far_mem_ctrl0.rdQLenPdf::121                 0                       # What read queue length does an incoming req see (Count)
system.far_mem_ctrl0.rdQLenPdf::122                 0                       # What read queue length does an incoming req see (Count)
system.far_mem_ctrl0.rdQLenPdf::123                 0                       # What read queue length does an incoming req see (Count)
system.far_mem_ctrl0.rdQLenPdf::124                 0                       # What read queue length does an incoming req see (Count)
system.far_mem_ctrl0.rdQLenPdf::125                 0                       # What read queue length does an incoming req see (Count)
system.far_mem_ctrl0.rdQLenPdf::126                 0                       # What read queue length does an incoming req see (Count)
system.far_mem_ctrl0.rdQLenPdf::127                 0                       # What read queue length does an incoming req see (Count)
system.far_mem_ctrl0.wrQLenPdf::0                   1                       # What write queue length does an incoming req see (Count)
system.far_mem_ctrl0.wrQLenPdf::1                   1                       # What write queue length does an incoming req see (Count)
system.far_mem_ctrl0.wrQLenPdf::2                   1                       # What write queue length does an incoming req see (Count)
system.far_mem_ctrl0.wrQLenPdf::3                   1                       # What write queue length does an incoming req see (Count)
system.far_mem_ctrl0.wrQLenPdf::4                   1                       # What write queue length does an incoming req see (Count)
system.far_mem_ctrl0.wrQLenPdf::5                   1                       # What write queue length does an incoming req see (Count)
system.far_mem_ctrl0.wrQLenPdf::6                   1                       # What write queue length does an incoming req see (Count)
system.far_mem_ctrl0.wrQLenPdf::7                   1                       # What write queue length does an incoming req see (Count)
system.far_mem_ctrl0.wrQLenPdf::8                   1                       # What write queue length does an incoming req see (Count)
system.far_mem_ctrl0.wrQLenPdf::9                   1                       # What write queue length does an incoming req see (Count)
system.far_mem_ctrl0.wrQLenPdf::10                  1                       # What write queue length does an incoming req see (Count)
system.far_mem_ctrl0.wrQLenPdf::11                  1                       # What write queue length does an incoming req see (Count)
system.far_mem_ctrl0.wrQLenPdf::12                  1                       # What write queue length does an incoming req see (Count)
system.far_mem_ctrl0.wrQLenPdf::13                  1                       # What write queue length does an incoming req see (Count)
system.far_mem_ctrl0.wrQLenPdf::14                  1                       # What write queue length does an incoming req see (Count)
system.far_mem_ctrl0.wrQLenPdf::15                  1                       # What write queue length does an incoming req see (Count)
system.far_mem_ctrl0.wrQLenPdf::16                  1                       # What write queue length does an incoming req see (Count)
system.far_mem_ctrl0.wrQLenPdf::17                  1                       # What write queue length does an incoming req see (Count)
system.far_mem_ctrl0.wrQLenPdf::18                  1                       # What write queue length does an incoming req see (Count)
system.far_mem_ctrl0.wrQLenPdf::19                  1                       # What write queue length does an incoming req see (Count)
system.far_mem_ctrl0.wrQLenPdf::20                  1                       # What write queue length does an incoming req see (Count)
system.far_mem_ctrl0.wrQLenPdf::21                  1                       # What write queue length does an incoming req see (Count)
system.far_mem_ctrl0.wrQLenPdf::22                  1                       # What write queue length does an incoming req see (Count)
system.far_mem_ctrl0.wrQLenPdf::23                  1                       # What write queue length does an incoming req see (Count)
system.far_mem_ctrl0.wrQLenPdf::24                  1                       # What write queue length does an incoming req see (Count)
system.far_mem_ctrl0.wrQLenPdf::25                  1                       # What write queue length does an incoming req see (Count)
system.far_mem_ctrl0.wrQLenPdf::26                  1                       # What write queue length does an incoming req see (Count)
system.far_mem_ctrl0.wrQLenPdf::27                  1                       # What write queue length does an incoming req see (Count)
system.far_mem_ctrl0.wrQLenPdf::28                  1                       # What write queue length does an incoming req see (Count)
system.far_mem_ctrl0.wrQLenPdf::29                  1                       # What write queue length does an incoming req see (Count)
system.far_mem_ctrl0.wrQLenPdf::30                  1                       # What write queue length does an incoming req see (Count)
system.far_mem_ctrl0.wrQLenPdf::31                  1                       # What write queue length does an incoming req see (Count)
system.far_mem_ctrl0.wrQLenPdf::32                  1                       # What write queue length does an incoming req see (Count)
system.far_mem_ctrl0.wrQLenPdf::33                  1                       # What write queue length does an incoming req see (Count)
system.far_mem_ctrl0.wrQLenPdf::34                  1                       # What write queue length does an incoming req see (Count)
system.far_mem_ctrl0.wrQLenPdf::35                  1                       # What write queue length does an incoming req see (Count)
system.far_mem_ctrl0.wrQLenPdf::36                  1                       # What write queue length does an incoming req see (Count)
system.far_mem_ctrl0.wrQLenPdf::37                  1                       # What write queue length does an incoming req see (Count)
system.far_mem_ctrl0.wrQLenPdf::38                  1                       # What write queue length does an incoming req see (Count)
system.far_mem_ctrl0.wrQLenPdf::39                  1                       # What write queue length does an incoming req see (Count)
system.far_mem_ctrl0.wrQLenPdf::40                  1                       # What write queue length does an incoming req see (Count)
system.far_mem_ctrl0.wrQLenPdf::41                  1                       # What write queue length does an incoming req see (Count)
system.far_mem_ctrl0.wrQLenPdf::42                  1                       # What write queue length does an incoming req see (Count)
system.far_mem_ctrl0.wrQLenPdf::43                  1                       # What write queue length does an incoming req see (Count)
system.far_mem_ctrl0.wrQLenPdf::44                  1                       # What write queue length does an incoming req see (Count)
system.far_mem_ctrl0.wrQLenPdf::45                  1                       # What write queue length does an incoming req see (Count)
system.far_mem_ctrl0.wrQLenPdf::46                  1                       # What write queue length does an incoming req see (Count)
system.far_mem_ctrl0.wrQLenPdf::47                  3                       # What write queue length does an incoming req see (Count)
system.far_mem_ctrl0.wrQLenPdf::48                  3                       # What write queue length does an incoming req see (Count)
system.far_mem_ctrl0.wrQLenPdf::49                  3                       # What write queue length does an incoming req see (Count)
system.far_mem_ctrl0.wrQLenPdf::50                  3                       # What write queue length does an incoming req see (Count)
system.far_mem_ctrl0.wrQLenPdf::51                  3                       # What write queue length does an incoming req see (Count)
system.far_mem_ctrl0.wrQLenPdf::52                  4                       # What write queue length does an incoming req see (Count)
system.far_mem_ctrl0.wrQLenPdf::53                  4                       # What write queue length does an incoming req see (Count)
system.far_mem_ctrl0.wrQLenPdf::54                  4                       # What write queue length does an incoming req see (Count)
system.far_mem_ctrl0.wrQLenPdf::55                  5                       # What write queue length does an incoming req see (Count)
system.far_mem_ctrl0.wrQLenPdf::56                  7                       # What write queue length does an incoming req see (Count)
system.far_mem_ctrl0.wrQLenPdf::57                  9                       # What write queue length does an incoming req see (Count)
system.far_mem_ctrl0.wrQLenPdf::58                 10                       # What write queue length does an incoming req see (Count)
system.far_mem_ctrl0.wrQLenPdf::59                 10                       # What write queue length does an incoming req see (Count)
system.far_mem_ctrl0.wrQLenPdf::60                 11                       # What write queue length does an incoming req see (Count)
system.far_mem_ctrl0.wrQLenPdf::61                 11                       # What write queue length does an incoming req see (Count)
system.far_mem_ctrl0.wrQLenPdf::62                 11                       # What write queue length does an incoming req see (Count)
system.far_mem_ctrl0.wrQLenPdf::63                 11                       # What write queue length does an incoming req see (Count)
system.far_mem_ctrl0.wrQLenPdf::64                 12                       # What write queue length does an incoming req see (Count)
system.far_mem_ctrl0.wrQLenPdf::65                 11                       # What write queue length does an incoming req see (Count)
system.far_mem_ctrl0.wrQLenPdf::66                 11                       # What write queue length does an incoming req see (Count)
system.far_mem_ctrl0.wrQLenPdf::67                 11                       # What write queue length does an incoming req see (Count)
system.far_mem_ctrl0.wrQLenPdf::68                 10                       # What write queue length does an incoming req see (Count)
system.far_mem_ctrl0.wrQLenPdf::69                 11                       # What write queue length does an incoming req see (Count)
system.far_mem_ctrl0.wrQLenPdf::70                  9                       # What write queue length does an incoming req see (Count)
system.far_mem_ctrl0.wrQLenPdf::71                  9                       # What write queue length does an incoming req see (Count)
system.far_mem_ctrl0.wrQLenPdf::72                  8                       # What write queue length does an incoming req see (Count)
system.far_mem_ctrl0.wrQLenPdf::73                  6                       # What write queue length does an incoming req see (Count)
system.far_mem_ctrl0.wrQLenPdf::74                  6                       # What write queue length does an incoming req see (Count)
system.far_mem_ctrl0.wrQLenPdf::75                  5                       # What write queue length does an incoming req see (Count)
system.far_mem_ctrl0.wrQLenPdf::76                  5                       # What write queue length does an incoming req see (Count)
system.far_mem_ctrl0.wrQLenPdf::77                  3                       # What write queue length does an incoming req see (Count)
system.far_mem_ctrl0.wrQLenPdf::78                  3                       # What write queue length does an incoming req see (Count)
system.far_mem_ctrl0.wrQLenPdf::79                  2                       # What write queue length does an incoming req see (Count)
system.far_mem_ctrl0.wrQLenPdf::80                  1                       # What write queue length does an incoming req see (Count)
system.far_mem_ctrl0.wrQLenPdf::81                  1                       # What write queue length does an incoming req see (Count)
system.far_mem_ctrl0.wrQLenPdf::82                  1                       # What write queue length does an incoming req see (Count)
system.far_mem_ctrl0.wrQLenPdf::83                  1                       # What write queue length does an incoming req see (Count)
system.far_mem_ctrl0.wrQLenPdf::84                  1                       # What write queue length does an incoming req see (Count)
system.far_mem_ctrl0.wrQLenPdf::85                  1                       # What write queue length does an incoming req see (Count)
system.far_mem_ctrl0.wrQLenPdf::86                  2                       # What write queue length does an incoming req see (Count)
system.far_mem_ctrl0.wrQLenPdf::87                  2                       # What write queue length does an incoming req see (Count)
system.far_mem_ctrl0.wrQLenPdf::88                  2                       # What write queue length does an incoming req see (Count)
system.far_mem_ctrl0.wrQLenPdf::89                  3                       # What write queue length does an incoming req see (Count)
system.far_mem_ctrl0.wrQLenPdf::90                  3                       # What write queue length does an incoming req see (Count)
system.far_mem_ctrl0.wrQLenPdf::91                  3                       # What write queue length does an incoming req see (Count)
system.far_mem_ctrl0.wrQLenPdf::92                  3                       # What write queue length does an incoming req see (Count)
system.far_mem_ctrl0.wrQLenPdf::93                  9                       # What write queue length does an incoming req see (Count)
system.far_mem_ctrl0.wrQLenPdf::94                 10                       # What write queue length does an incoming req see (Count)
system.far_mem_ctrl0.wrQLenPdf::95                 11                       # What write queue length does an incoming req see (Count)
system.far_mem_ctrl0.wrQLenPdf::96                 12                       # What write queue length does an incoming req see (Count)
system.far_mem_ctrl0.wrQLenPdf::97                 13                       # What write queue length does an incoming req see (Count)
system.far_mem_ctrl0.wrQLenPdf::98                 12                       # What write queue length does an incoming req see (Count)
system.far_mem_ctrl0.wrQLenPdf::99                 12                       # What write queue length does an incoming req see (Count)
system.far_mem_ctrl0.wrQLenPdf::100                12                       # What write queue length does an incoming req see (Count)
system.far_mem_ctrl0.wrQLenPdf::101                12                       # What write queue length does an incoming req see (Count)
system.far_mem_ctrl0.wrQLenPdf::102                11                       # What write queue length does an incoming req see (Count)
system.far_mem_ctrl0.wrQLenPdf::103                11                       # What write queue length does an incoming req see (Count)
system.far_mem_ctrl0.wrQLenPdf::104                10                       # What write queue length does an incoming req see (Count)
system.far_mem_ctrl0.wrQLenPdf::105                10                       # What write queue length does an incoming req see (Count)
system.far_mem_ctrl0.wrQLenPdf::106                11                       # What write queue length does an incoming req see (Count)
system.far_mem_ctrl0.wrQLenPdf::107                10                       # What write queue length does an incoming req see (Count)
system.far_mem_ctrl0.wrQLenPdf::108                11                       # What write queue length does an incoming req see (Count)
system.far_mem_ctrl0.wrQLenPdf::109                 4                       # What write queue length does an incoming req see (Count)
system.far_mem_ctrl0.wrQLenPdf::110                 1                       # What write queue length does an incoming req see (Count)
system.far_mem_ctrl0.wrQLenPdf::111                 0                       # What write queue length does an incoming req see (Count)
system.far_mem_ctrl0.wrQLenPdf::112                 0                       # What write queue length does an incoming req see (Count)
system.far_mem_ctrl0.wrQLenPdf::113                 0                       # What write queue length does an incoming req see (Count)
system.far_mem_ctrl0.wrQLenPdf::114                 0                       # What write queue length does an incoming req see (Count)
system.far_mem_ctrl0.wrQLenPdf::115                 0                       # What write queue length does an incoming req see (Count)
system.far_mem_ctrl0.wrQLenPdf::116                 0                       # What write queue length does an incoming req see (Count)
system.far_mem_ctrl0.wrQLenPdf::117                 0                       # What write queue length does an incoming req see (Count)
system.far_mem_ctrl0.wrQLenPdf::118                 0                       # What write queue length does an incoming req see (Count)
system.far_mem_ctrl0.wrQLenPdf::119                 0                       # What write queue length does an incoming req see (Count)
system.far_mem_ctrl0.wrQLenPdf::120                 0                       # What write queue length does an incoming req see (Count)
system.far_mem_ctrl0.wrQLenPdf::121                 0                       # What write queue length does an incoming req see (Count)
system.far_mem_ctrl0.wrQLenPdf::122                 0                       # What write queue length does an incoming req see (Count)
system.far_mem_ctrl0.wrQLenPdf::123                 0                       # What write queue length does an incoming req see (Count)
system.far_mem_ctrl0.wrQLenPdf::124                 0                       # What write queue length does an incoming req see (Count)
system.far_mem_ctrl0.wrQLenPdf::125                 0                       # What write queue length does an incoming req see (Count)
system.far_mem_ctrl0.wrQLenPdf::126                 0                       # What write queue length does an incoming req see (Count)
system.far_mem_ctrl0.wrQLenPdf::127                 0                       # What write queue length does an incoming req see (Count)
system.far_mem_ctrl0.rdPerTurnAround::samples           23                       # Reads before turning the bus around for writes (Count)
system.far_mem_ctrl0.rdPerTurnAround::mean   122.913043                       # Reads before turning the bus around for writes (Count)
system.far_mem_ctrl0.rdPerTurnAround::gmean    85.948343                       # Reads before turning the bus around for writes (Count)
system.far_mem_ctrl0.rdPerTurnAround::stdev   194.242799                       # Reads before turning the bus around for writes (Count)
system.far_mem_ctrl0.rdPerTurnAround::24-31            1      4.35%      4.35% # Reads before turning the bus around for writes (Count)
system.far_mem_ctrl0.rdPerTurnAround::48-55            1      4.35%      8.70% # Reads before turning the bus around for writes (Count)
system.far_mem_ctrl0.rdPerTurnAround::56-63            3     13.04%     21.74% # Reads before turning the bus around for writes (Count)
system.far_mem_ctrl0.rdPerTurnAround::64-71            7     30.43%     52.17% # Reads before turning the bus around for writes (Count)
system.far_mem_ctrl0.rdPerTurnAround::80-87            2      8.70%     60.87% # Reads before turning the bus around for writes (Count)
system.far_mem_ctrl0.rdPerTurnAround::88-95            1      4.35%     65.22% # Reads before turning the bus around for writes (Count)
system.far_mem_ctrl0.rdPerTurnAround::96-103            3     13.04%     78.26% # Reads before turning the bus around for writes (Count)
system.far_mem_ctrl0.rdPerTurnAround::104-111            1      4.35%     82.61% # Reads before turning the bus around for writes (Count)
system.far_mem_ctrl0.rdPerTurnAround::120-127            1      4.35%     86.96% # Reads before turning the bus around for writes (Count)
system.far_mem_ctrl0.rdPerTurnAround::128-135            1      4.35%     91.30% # Reads before turning the bus around for writes (Count)
system.far_mem_ctrl0.rdPerTurnAround::192-199            1      4.35%     95.65% # Reads before turning the bus around for writes (Count)
system.far_mem_ctrl0.rdPerTurnAround::1000-1007            1      4.35%    100.00% # Reads before turning the bus around for writes (Count)
system.far_mem_ctrl0.rdPerTurnAround::total           23                       # Reads before turning the bus around for writes (Count)
system.far_mem_ctrl0.wrPerTurnAround::samples           23                       # Writes before turning the bus around for reads (Count)
system.far_mem_ctrl0.wrPerTurnAround::mean    17.086957                       # Writes before turning the bus around for reads (Count)
system.far_mem_ctrl0.wrPerTurnAround::gmean    16.903509                       # Writes before turning the bus around for reads (Count)
system.far_mem_ctrl0.wrPerTurnAround::stdev     2.906310                       # Writes before turning the bus around for reads (Count)
system.far_mem_ctrl0.wrPerTurnAround::16           19     82.61%     82.61% # Writes before turning the bus around for reads (Count)
system.far_mem_ctrl0.wrPerTurnAround::18            1      4.35%     86.96% # Writes before turning the bus around for reads (Count)
system.far_mem_ctrl0.wrPerTurnAround::20            1      4.35%     91.30% # Writes before turning the bus around for reads (Count)
system.far_mem_ctrl0.wrPerTurnAround::23            1      4.35%     95.65% # Writes before turning the bus around for reads (Count)
system.far_mem_ctrl0.wrPerTurnAround::28            1      4.35%    100.00% # Writes before turning the bus around for reads (Count)
system.far_mem_ctrl0.wrPerTurnAround::total           23                       # Writes before turning the bus around for reads (Count)
system.far_mem_ctrl0.bytesReadWrQ                   0                       # Total number of bytes read from write queue (Byte)
system.far_mem_ctrl0.bytesReadSys              182272                       # Total read bytes from the system interface side (Byte)
system.far_mem_ctrl0.bytesWrittenSys            31168                       # Total written bytes from the system interface side (Byte)
system.far_mem_ctrl0.avgRdBWSys          1822574194.06447482                       # Average system read bandwidth in Byte/s ((Byte/Second))
system.far_mem_ctrl0.avgWrBWSys          311655067.59459245                       # Average system write bandwidth in Byte/s ((Byte/Second))
system.far_mem_ctrl0.totGap                  99835000                       # Total gap between requests (Tick)
system.far_mem_ctrl0.avgGap                  29935.53                       # Average gap between requests ((Tick/Count))
system.far_mem_ctrl0.requestorReadBytes::writebacks       181120                       # Per-requestor bytes read from memory (Byte)
system.far_mem_ctrl0.requestorWriteBytes::writebacks        25152                       # Per-requestor bytes write to memory (Byte)
system.far_mem_ctrl0.requestorReadRate::writebacks 1811055115.590752840042                       # Per-requestor bytes read from memory rate ((Byte/Second))
system.far_mem_ctrl0.requestorWriteRate::writebacks 251499880.009599238634                       # Per-requestor bytes write to memory rate ((Byte/Second))
system.far_mem_ctrl0.requestorReadAccesses::writebacks         2848                       # Per-requestor read serviced memory accesses (Count)
system.far_mem_ctrl0.requestorWriteAccesses::writebacks          487                       # Per-requestor write serviced memory accesses (Count)
system.far_mem_ctrl0.requestorReadTotalLat::writebacks    807977988                       # Per-requestor read total memory access latency (Tick)
system.far_mem_ctrl0.requestorWriteTotalLat::writebacks   5327398486                       # Per-requestor write total memory access latency (Tick)
system.far_mem_ctrl0.requestorReadAvgLat::writebacks    283700.14                       # Per-requestor read average memory access latency ((Tick/Count))
system.far_mem_ctrl0.requestorWriteAvgLat::writebacks  10939216.60                       # Per-requestor write average memory access latency ((Tick/Count))
system.far_mem_ctrl0.dram.bytesRead::writebacks       181120                       # Number of bytes read from this memory (Byte)
system.far_mem_ctrl0.dram.bytesRead::total       181120                       # Number of bytes read from this memory (Byte)
system.far_mem_ctrl0.dram.bytesWritten::writebacks        31168                       # Number of bytes written to this memory (Byte)
system.far_mem_ctrl0.dram.bytesWritten::total        31168                       # Number of bytes written to this memory (Byte)
system.far_mem_ctrl0.dram.numReads::writebacks         2830                       # Number of read requests responded to by this memory (Count)
system.far_mem_ctrl0.dram.numReads::total         2830                       # Number of read requests responded to by this memory (Count)
system.far_mem_ctrl0.dram.numWrites::writebacks          487                       # Number of write requests responded to by this memory (Count)
system.far_mem_ctrl0.dram.numWrites::total          487                       # Number of write requests responded to by this memory (Count)
system.far_mem_ctrl0.dram.bwRead::writebacks   1811055116                       # Total read bandwidth from this memory ((Byte/Second))
system.far_mem_ctrl0.dram.bwRead::total    1811055116                       # Total read bandwidth from this memory ((Byte/Second))
system.far_mem_ctrl0.dram.bwWrite::writebacks    311655068                       # Write bandwidth from this memory ((Byte/Second))
system.far_mem_ctrl0.dram.bwWrite::total    311655068                       # Write bandwidth from this memory ((Byte/Second))
system.far_mem_ctrl0.dram.bwTotal::writebacks   2122710183                       # Total bandwidth to/from this memory ((Byte/Second))
system.far_mem_ctrl0.dram.bwTotal::total   2122710183                       # Total bandwidth to/from this memory ((Byte/Second))
system.far_mem_ctrl0.dram.readBursts             2830                       # Number of NVM read bursts (Count)
system.far_mem_ctrl0.dram.writeBursts             393                       # Number of NVM write bursts (Count)
system.far_mem_ctrl0.dram.perBankRdBursts::0          181                       # Per bank write bursts (Count)
system.far_mem_ctrl0.dram.perBankRdBursts::1          196                       # Per bank write bursts (Count)
system.far_mem_ctrl0.dram.perBankRdBursts::2          183                       # Per bank write bursts (Count)
system.far_mem_ctrl0.dram.perBankRdBursts::3          166                       # Per bank write bursts (Count)
system.far_mem_ctrl0.dram.perBankRdBursts::4          183                       # Per bank write bursts (Count)
system.far_mem_ctrl0.dram.perBankRdBursts::5          168                       # Per bank write bursts (Count)
system.far_mem_ctrl0.dram.perBankRdBursts::6          206                       # Per bank write bursts (Count)
system.far_mem_ctrl0.dram.perBankRdBursts::7          168                       # Per bank write bursts (Count)
system.far_mem_ctrl0.dram.perBankRdBursts::8          163                       # Per bank write bursts (Count)
system.far_mem_ctrl0.dram.perBankRdBursts::9          192                       # Per bank write bursts (Count)
system.far_mem_ctrl0.dram.perBankRdBursts::10          160                       # Per bank write bursts (Count)
system.far_mem_ctrl0.dram.perBankRdBursts::11          190                       # Per bank write bursts (Count)
system.far_mem_ctrl0.dram.perBankRdBursts::12          179                       # Per bank write bursts (Count)
system.far_mem_ctrl0.dram.perBankRdBursts::13          167                       # Per bank write bursts (Count)
system.far_mem_ctrl0.dram.perBankRdBursts::14          163                       # Per bank write bursts (Count)
system.far_mem_ctrl0.dram.perBankRdBursts::15          165                       # Per bank write bursts (Count)
system.far_mem_ctrl0.dram.perBankWrBursts::0           22                       # Per bank write bursts (Count)
system.far_mem_ctrl0.dram.perBankWrBursts::1           30                       # Per bank write bursts (Count)
system.far_mem_ctrl0.dram.perBankWrBursts::2           14                       # Per bank write bursts (Count)
system.far_mem_ctrl0.dram.perBankWrBursts::3           24                       # Per bank write bursts (Count)
system.far_mem_ctrl0.dram.perBankWrBursts::4           26                       # Per bank write bursts (Count)
system.far_mem_ctrl0.dram.perBankWrBursts::5           26                       # Per bank write bursts (Count)
system.far_mem_ctrl0.dram.perBankWrBursts::6           18                       # Per bank write bursts (Count)
system.far_mem_ctrl0.dram.perBankWrBursts::7           29                       # Per bank write bursts (Count)
system.far_mem_ctrl0.dram.perBankWrBursts::8           33                       # Per bank write bursts (Count)
system.far_mem_ctrl0.dram.perBankWrBursts::9           37                       # Per bank write bursts (Count)
system.far_mem_ctrl0.dram.perBankWrBursts::10           25                       # Per bank write bursts (Count)
system.far_mem_ctrl0.dram.perBankWrBursts::11           24                       # Per bank write bursts (Count)
system.far_mem_ctrl0.dram.perBankWrBursts::12           18                       # Per bank write bursts (Count)
system.far_mem_ctrl0.dram.perBankWrBursts::13           26                       # Per bank write bursts (Count)
system.far_mem_ctrl0.dram.perBankWrBursts::14           21                       # Per bank write bursts (Count)
system.far_mem_ctrl0.dram.perBankWrBursts::15           20                       # Per bank write bursts (Count)
system.far_mem_ctrl0.dram.totQLat           758475628                       # Total ticks spent queuing (Tick)
system.far_mem_ctrl0.dram.totBusLat           9429560                       # Total ticks spent in databus transfers (Tick)
system.far_mem_ctrl0.dram.totMemAccLat      807977988                       # Total ticks spent from burst creation until serviced by the NVM (Tick)
system.far_mem_ctrl0.dram.avgQLat           268012.59                       # Average queueing delay per NVM burst ((Tick/Count))
system.far_mem_ctrl0.dram.avgBusLat           3332.00                       # Average bus latency per NVM burst ((Tick/Count))
system.far_mem_ctrl0.dram.avgMemAccLat      285504.59                       # Average memory access latency per NVM burst ((Tick/Count))
system.far_mem_ctrl0.dram.avgRdBW             1811.06                       # Average DRAM read bandwidth in MiBytes/s ((Byte/Second))
system.far_mem_ctrl0.dram.avgWrBW              251.50                       # Average DRAM write bandwidth in MiBytes/s ((Byte/Second))
system.far_mem_ctrl0.dram.peakBW             19207.00                       # Theoretical peak bandwidth in MiByte/s ((Byte/Second))
system.far_mem_ctrl0.dram.busUtil               10.74                       # NVM Data bus utilization in percentage (Ratio)
system.far_mem_ctrl0.dram.busUtilRead            9.43                       # NVM Data bus read utilization in percentage (Ratio)
system.far_mem_ctrl0.dram.busUtilWrite           1.31                       # NVM Data bus write utilization in percentage (Ratio)
system.far_mem_ctrl0.dram.pendingReads::samples         2830                       # Reads issued to NVM for which data has not been transferred (Count)
system.far_mem_ctrl0.dram.pendingReads::mean     7.330035                       # Reads issued to NVM for which data has not been transferred (Count)
system.far_mem_ctrl0.dram.pendingReads::stdev     4.374310                       # Reads issued to NVM for which data has not been transferred (Count)
system.far_mem_ctrl0.dram.pendingReads::0           41      1.45%      1.45% # Reads issued to NVM for which data has not been transferred (Count)
system.far_mem_ctrl0.dram.pendingReads::1          128      4.52%      5.97% # Reads issued to NVM for which data has not been transferred (Count)
system.far_mem_ctrl0.dram.pendingReads::2          180      6.36%     12.33% # Reads issued to NVM for which data has not been transferred (Count)
system.far_mem_ctrl0.dram.pendingReads::3          228      8.06%     20.39% # Reads issued to NVM for which data has not been transferred (Count)
system.far_mem_ctrl0.dram.pendingReads::4          259      9.15%     29.54% # Reads issued to NVM for which data has not been transferred (Count)
system.far_mem_ctrl0.dram.pendingReads::5          275      9.72%     39.26% # Reads issued to NVM for which data has not been transferred (Count)
system.far_mem_ctrl0.dram.pendingReads::6          273      9.65%     48.90% # Reads issued to NVM for which data has not been transferred (Count)
system.far_mem_ctrl0.dram.pendingReads::7          249      8.80%     57.70% # Reads issued to NVM for which data has not been transferred (Count)
system.far_mem_ctrl0.dram.pendingReads::8          218      7.70%     65.41% # Reads issued to NVM for which data has not been transferred (Count)
system.far_mem_ctrl0.dram.pendingReads::9          170      6.01%     71.41% # Reads issued to NVM for which data has not been transferred (Count)
system.far_mem_ctrl0.dram.pendingReads::10          161      5.69%     77.10% # Reads issued to NVM for which data has not been transferred (Count)
system.far_mem_ctrl0.dram.pendingReads::11          136      4.81%     81.91% # Reads issued to NVM for which data has not been transferred (Count)
system.far_mem_ctrl0.dram.pendingReads::12          114      4.03%     85.94% # Reads issued to NVM for which data has not been transferred (Count)
system.far_mem_ctrl0.dram.pendingReads::13          113      3.99%     89.93% # Reads issued to NVM for which data has not been transferred (Count)
system.far_mem_ctrl0.dram.pendingReads::14           85      3.00%     92.93% # Reads issued to NVM for which data has not been transferred (Count)
system.far_mem_ctrl0.dram.pendingReads::15           65      2.30%     95.23% # Reads issued to NVM for which data has not been transferred (Count)
system.far_mem_ctrl0.dram.pendingReads::16           48      1.70%     96.93% # Reads issued to NVM for which data has not been transferred (Count)
system.far_mem_ctrl0.dram.pendingReads::17           33      1.17%     98.09% # Reads issued to NVM for which data has not been transferred (Count)
system.far_mem_ctrl0.dram.pendingReads::18           19      0.67%     98.76% # Reads issued to NVM for which data has not been transferred (Count)
system.far_mem_ctrl0.dram.pendingReads::19            9      0.32%     99.08% # Reads issued to NVM for which data has not been transferred (Count)
system.far_mem_ctrl0.dram.pendingReads::20            7      0.25%     99.33% # Reads issued to NVM for which data has not been transferred (Count)
system.far_mem_ctrl0.dram.pendingReads::21            9      0.32%     99.65% # Reads issued to NVM for which data has not been transferred (Count)
system.far_mem_ctrl0.dram.pendingReads::22            6      0.21%     99.86% # Reads issued to NVM for which data has not been transferred (Count)
system.far_mem_ctrl0.dram.pendingReads::23            2      0.07%     99.93% # Reads issued to NVM for which data has not been transferred (Count)
system.far_mem_ctrl0.dram.pendingReads::24            1      0.04%     99.96% # Reads issued to NVM for which data has not been transferred (Count)
system.far_mem_ctrl0.dram.pendingReads::25            1      0.04%    100.00% # Reads issued to NVM for which data has not been transferred (Count)
system.far_mem_ctrl0.dram.pendingReads::total         2830                       # Reads issued to NVM for which data has not been transferred (Count)
system.far_mem_ctrl0.dram.pendingWrites::samples          375                       # Number of outstanding writes to NVM (Count)
system.far_mem_ctrl0.dram.pendingWrites::mean     9.512000                       # Number of outstanding writes to NVM (Count)
system.far_mem_ctrl0.dram.pendingWrites::gmean     7.544878                       # Number of outstanding writes to NVM (Count)
system.far_mem_ctrl0.dram.pendingWrites::stdev     5.467379                       # Number of outstanding writes to NVM (Count)
system.far_mem_ctrl0.dram.pendingWrites::1           20      5.33%      5.33% # Number of outstanding writes to NVM (Count)
system.far_mem_ctrl0.dram.pendingWrites::2           20      5.33%     10.67% # Number of outstanding writes to NVM (Count)
system.far_mem_ctrl0.dram.pendingWrites::3           21      5.60%     16.27% # Number of outstanding writes to NVM (Count)
system.far_mem_ctrl0.dram.pendingWrites::4           21      5.60%     21.87% # Number of outstanding writes to NVM (Count)
system.far_mem_ctrl0.dram.pendingWrites::5           22      5.87%     27.73% # Number of outstanding writes to NVM (Count)
system.far_mem_ctrl0.dram.pendingWrites::6           22      5.87%     33.60% # Number of outstanding writes to NVM (Count)
system.far_mem_ctrl0.dram.pendingWrites::7           22      5.87%     39.47% # Number of outstanding writes to NVM (Count)
system.far_mem_ctrl0.dram.pendingWrites::8           22      5.87%     45.33% # Number of outstanding writes to NVM (Count)
system.far_mem_ctrl0.dram.pendingWrites::9           22      5.87%     51.20% # Number of outstanding writes to NVM (Count)
system.far_mem_ctrl0.dram.pendingWrites::10           22      5.87%     57.07% # Number of outstanding writes to NVM (Count)
system.far_mem_ctrl0.dram.pendingWrites::11           22      5.87%     62.93% # Number of outstanding writes to NVM (Count)
system.far_mem_ctrl0.dram.pendingWrites::12           22      5.87%     68.80% # Number of outstanding writes to NVM (Count)
system.far_mem_ctrl0.dram.pendingWrites::13           22      5.87%     74.67% # Number of outstanding writes to NVM (Count)
system.far_mem_ctrl0.dram.pendingWrites::14           22      5.87%     80.53% # Number of outstanding writes to NVM (Count)
system.far_mem_ctrl0.dram.pendingWrites::15           23      6.13%     86.67% # Number of outstanding writes to NVM (Count)
system.far_mem_ctrl0.dram.pendingWrites::16           22      5.87%     92.53% # Number of outstanding writes to NVM (Count)
system.far_mem_ctrl0.dram.pendingWrites::17            5      1.33%     93.87% # Number of outstanding writes to NVM (Count)
system.far_mem_ctrl0.dram.pendingWrites::18            5      1.33%     95.20% # Number of outstanding writes to NVM (Count)
system.far_mem_ctrl0.dram.pendingWrites::19            4      1.07%     96.27% # Number of outstanding writes to NVM (Count)
system.far_mem_ctrl0.dram.pendingWrites::20            3      0.80%     97.07% # Number of outstanding writes to NVM (Count)
system.far_mem_ctrl0.dram.pendingWrites::21            2      0.53%     97.60% # Number of outstanding writes to NVM (Count)
system.far_mem_ctrl0.dram.pendingWrites::22            2      0.53%     98.13% # Number of outstanding writes to NVM (Count)
system.far_mem_ctrl0.dram.pendingWrites::23            2      0.53%     98.67% # Number of outstanding writes to NVM (Count)
system.far_mem_ctrl0.dram.pendingWrites::24            1      0.27%     98.93% # Number of outstanding writes to NVM (Count)
system.far_mem_ctrl0.dram.pendingWrites::25            1      0.27%     99.20% # Number of outstanding writes to NVM (Count)
system.far_mem_ctrl0.dram.pendingWrites::26            1      0.27%     99.47% # Number of outstanding writes to NVM (Count)
system.far_mem_ctrl0.dram.pendingWrites::27            1      0.27%     99.73% # Number of outstanding writes to NVM (Count)
system.far_mem_ctrl0.dram.pendingWrites::28            1      0.27%    100.00% # Number of outstanding writes to NVM (Count)
system.far_mem_ctrl0.dram.pendingWrites::total          375                       # Number of outstanding writes to NVM (Count)
system.far_mem_ctrl0.dram.bytesPerBank::samples         3241                       # Bytes read within a bank before loading new bank (Byte)
system.far_mem_ctrl0.dram.bytesPerBank::mean           64                       # Bytes read within a bank before loading new bank (Byte)
system.far_mem_ctrl0.dram.bytesPerBank::gmean    64.000000                       # Bytes read within a bank before loading new bank (Byte)
system.far_mem_ctrl0.dram.bytesPerBank::64         3241    100.00%    100.00% # Bytes read within a bank before loading new bank (Byte)
system.far_mem_ctrl0.dram.bytesPerBank::total         3241                       # Bytes read within a bank before loading new bank (Byte)
system.far_mem_ctrl0.dram.power_state.pwrStateResidencyTicks::UNDEFINED    100008000                       # Cumulative time (in ticks) in various power states (Tick)
system.far_mem_ctrl0.power_state.pwrStateResidencyTicks::UNDEFINED    100008000                       # Cumulative time (in ticks) in various power states (Tick)
system.far_mem_ctrl1.avgPriority_writebacks::samples      3222.00                       # Average QoS priority value for accepted requests (Count)
system.far_mem_ctrl1.priorityMinLatency  0.000000317492                       # per QoS priority minimum request to response latency (Second)
system.far_mem_ctrl1.priorityMaxLatency  0.000073154490                       # per QoS priority maximum request to response latency (Second)
system.far_mem_ctrl1.numReadWriteTurnArounds           19                       # Number of turnarounds from READ to WRITE (Count)
system.far_mem_ctrl1.numWriteReadTurnArounds           19                       # Number of turnarounds from WRITE to READ (Count)
system.far_mem_ctrl1.numStayReadState            9041                       # Number of times bus staying in READ state (Count)
system.far_mem_ctrl1.numStayWriteState            318                       # Number of times bus staying in WRITE state (Count)
system.far_mem_ctrl1.readReqs                    2777                       # Number of read requests accepted (Count)
system.far_mem_ctrl1.writeReqs                    445                       # Number of write requests accepted (Count)
system.far_mem_ctrl1.readBursts                  2777                       # Number of controller read bursts, including those serviced by the write queue (Count)
system.far_mem_ctrl1.writeBursts                  445                       # Number of controller write bursts, including those merged in the write queue (Count)
system.far_mem_ctrl1.servicedByWrQ                  0                       # Number of controller read bursts serviced by the write queue (Count)
system.far_mem_ctrl1.mergedWrBursts                 0                       # Number of controller write bursts merged with an existing one (Count)
system.far_mem_ctrl1.neitherReadNorWriteReqs            0                       # Number of requests that are neither read nor write (Count)
system.far_mem_ctrl1.avgRdQLen                   9.08                       # Average read queue length when enqueuing ((Count/Tick))
system.far_mem_ctrl1.avgWrQLen                  53.93                       # Average write queue length when enqueuing ((Count/Tick))
system.far_mem_ctrl1.numRdRetry                     0                       # Number of times read queue was full causing retry (Count)
system.far_mem_ctrl1.numWrRetry                     0                       # Number of times write queue was full causing retry (Count)
system.far_mem_ctrl1.readPktSize::0                 0                       # Read request sizes (log2) (Count)
system.far_mem_ctrl1.readPktSize::1                 0                       # Read request sizes (log2) (Count)
system.far_mem_ctrl1.readPktSize::2                 0                       # Read request sizes (log2) (Count)
system.far_mem_ctrl1.readPktSize::3                 0                       # Read request sizes (log2) (Count)
system.far_mem_ctrl1.readPktSize::4                 0                       # Read request sizes (log2) (Count)
system.far_mem_ctrl1.readPktSize::5                 0                       # Read request sizes (log2) (Count)
system.far_mem_ctrl1.readPktSize::6              2777                       # Read request sizes (log2) (Count)
system.far_mem_ctrl1.writePktSize::0                0                       # Write request sizes (log2) (Count)
system.far_mem_ctrl1.writePktSize::1                0                       # Write request sizes (log2) (Count)
system.far_mem_ctrl1.writePktSize::2                0                       # Write request sizes (log2) (Count)
system.far_mem_ctrl1.writePktSize::3                0                       # Write request sizes (log2) (Count)
system.far_mem_ctrl1.writePktSize::4                0                       # Write request sizes (log2) (Count)
system.far_mem_ctrl1.writePktSize::5                0                       # Write request sizes (log2) (Count)
system.far_mem_ctrl1.writePktSize::6              445                       # Write request sizes (log2) (Count)
system.far_mem_ctrl1.rdQLenPdf::0                  36                       # What read queue length does an incoming req see (Count)
system.far_mem_ctrl1.rdQLenPdf::1                 102                       # What read queue length does an incoming req see (Count)
system.far_mem_ctrl1.rdQLenPdf::2                 187                       # What read queue length does an incoming req see (Count)
system.far_mem_ctrl1.rdQLenPdf::3                 271                       # What read queue length does an incoming req see (Count)
system.far_mem_ctrl1.rdQLenPdf::4                 294                       # What read queue length does an incoming req see (Count)
system.far_mem_ctrl1.rdQLenPdf::5                 307                       # What read queue length does an incoming req see (Count)
system.far_mem_ctrl1.rdQLenPdf::6                 295                       # What read queue length does an incoming req see (Count)
system.far_mem_ctrl1.rdQLenPdf::7                 287                       # What read queue length does an incoming req see (Count)
system.far_mem_ctrl1.rdQLenPdf::8                 223                       # What read queue length does an incoming req see (Count)
system.far_mem_ctrl1.rdQLenPdf::9                 183                       # What read queue length does an incoming req see (Count)
system.far_mem_ctrl1.rdQLenPdf::10                138                       # What read queue length does an incoming req see (Count)
system.far_mem_ctrl1.rdQLenPdf::11                117                       # What read queue length does an incoming req see (Count)
system.far_mem_ctrl1.rdQLenPdf::12                 86                       # What read queue length does an incoming req see (Count)
system.far_mem_ctrl1.rdQLenPdf::13                 73                       # What read queue length does an incoming req see (Count)
system.far_mem_ctrl1.rdQLenPdf::14                 54                       # What read queue length does an incoming req see (Count)
system.far_mem_ctrl1.rdQLenPdf::15                 44                       # What read queue length does an incoming req see (Count)
system.far_mem_ctrl1.rdQLenPdf::16                 33                       # What read queue length does an incoming req see (Count)
system.far_mem_ctrl1.rdQLenPdf::17                 22                       # What read queue length does an incoming req see (Count)
system.far_mem_ctrl1.rdQLenPdf::18                 12                       # What read queue length does an incoming req see (Count)
system.far_mem_ctrl1.rdQLenPdf::19                  6                       # What read queue length does an incoming req see (Count)
system.far_mem_ctrl1.rdQLenPdf::20                  4                       # What read queue length does an incoming req see (Count)
system.far_mem_ctrl1.rdQLenPdf::21                  1                       # What read queue length does an incoming req see (Count)
system.far_mem_ctrl1.rdQLenPdf::22                  2                       # What read queue length does an incoming req see (Count)
system.far_mem_ctrl1.rdQLenPdf::23                  0                       # What read queue length does an incoming req see (Count)
system.far_mem_ctrl1.rdQLenPdf::24                  0                       # What read queue length does an incoming req see (Count)
system.far_mem_ctrl1.rdQLenPdf::25                  0                       # What read queue length does an incoming req see (Count)
system.far_mem_ctrl1.rdQLenPdf::26                  0                       # What read queue length does an incoming req see (Count)
system.far_mem_ctrl1.rdQLenPdf::27                  0                       # What read queue length does an incoming req see (Count)
system.far_mem_ctrl1.rdQLenPdf::28                  0                       # What read queue length does an incoming req see (Count)
system.far_mem_ctrl1.rdQLenPdf::29                  0                       # What read queue length does an incoming req see (Count)
system.far_mem_ctrl1.rdQLenPdf::30                  0                       # What read queue length does an incoming req see (Count)
system.far_mem_ctrl1.rdQLenPdf::31                  0                       # What read queue length does an incoming req see (Count)
system.far_mem_ctrl1.rdQLenPdf::32                  0                       # What read queue length does an incoming req see (Count)
system.far_mem_ctrl1.rdQLenPdf::33                  0                       # What read queue length does an incoming req see (Count)
system.far_mem_ctrl1.rdQLenPdf::34                  0                       # What read queue length does an incoming req see (Count)
system.far_mem_ctrl1.rdQLenPdf::35                  0                       # What read queue length does an incoming req see (Count)
system.far_mem_ctrl1.rdQLenPdf::36                  0                       # What read queue length does an incoming req see (Count)
system.far_mem_ctrl1.rdQLenPdf::37                  0                       # What read queue length does an incoming req see (Count)
system.far_mem_ctrl1.rdQLenPdf::38                  0                       # What read queue length does an incoming req see (Count)
system.far_mem_ctrl1.rdQLenPdf::39                  0                       # What read queue length does an incoming req see (Count)
system.far_mem_ctrl1.rdQLenPdf::40                  0                       # What read queue length does an incoming req see (Count)
system.far_mem_ctrl1.rdQLenPdf::41                  0                       # What read queue length does an incoming req see (Count)
system.far_mem_ctrl1.rdQLenPdf::42                  0                       # What read queue length does an incoming req see (Count)
system.far_mem_ctrl1.rdQLenPdf::43                  0                       # What read queue length does an incoming req see (Count)
system.far_mem_ctrl1.rdQLenPdf::44                  0                       # What read queue length does an incoming req see (Count)
system.far_mem_ctrl1.rdQLenPdf::45                  0                       # What read queue length does an incoming req see (Count)
system.far_mem_ctrl1.rdQLenPdf::46                  0                       # What read queue length does an incoming req see (Count)
system.far_mem_ctrl1.rdQLenPdf::47                  0                       # What read queue length does an incoming req see (Count)
system.far_mem_ctrl1.rdQLenPdf::48                  0                       # What read queue length does an incoming req see (Count)
system.far_mem_ctrl1.rdQLenPdf::49                  0                       # What read queue length does an incoming req see (Count)
system.far_mem_ctrl1.rdQLenPdf::50                  0                       # What read queue length does an incoming req see (Count)
system.far_mem_ctrl1.rdQLenPdf::51                  0                       # What read queue length does an incoming req see (Count)
system.far_mem_ctrl1.rdQLenPdf::52                  0                       # What read queue length does an incoming req see (Count)
system.far_mem_ctrl1.rdQLenPdf::53                  0                       # What read queue length does an incoming req see (Count)
system.far_mem_ctrl1.rdQLenPdf::54                  0                       # What read queue length does an incoming req see (Count)
system.far_mem_ctrl1.rdQLenPdf::55                  0                       # What read queue length does an incoming req see (Count)
system.far_mem_ctrl1.rdQLenPdf::56                  0                       # What read queue length does an incoming req see (Count)
system.far_mem_ctrl1.rdQLenPdf::57                  0                       # What read queue length does an incoming req see (Count)
system.far_mem_ctrl1.rdQLenPdf::58                  0                       # What read queue length does an incoming req see (Count)
system.far_mem_ctrl1.rdQLenPdf::59                  0                       # What read queue length does an incoming req see (Count)
system.far_mem_ctrl1.rdQLenPdf::60                  0                       # What read queue length does an incoming req see (Count)
system.far_mem_ctrl1.rdQLenPdf::61                  0                       # What read queue length does an incoming req see (Count)
system.far_mem_ctrl1.rdQLenPdf::62                  0                       # What read queue length does an incoming req see (Count)
system.far_mem_ctrl1.rdQLenPdf::63                  0                       # What read queue length does an incoming req see (Count)
system.far_mem_ctrl1.rdQLenPdf::64                  0                       # What read queue length does an incoming req see (Count)
system.far_mem_ctrl1.rdQLenPdf::65                  0                       # What read queue length does an incoming req see (Count)
system.far_mem_ctrl1.rdQLenPdf::66                  0                       # What read queue length does an incoming req see (Count)
system.far_mem_ctrl1.rdQLenPdf::67                  0                       # What read queue length does an incoming req see (Count)
system.far_mem_ctrl1.rdQLenPdf::68                  0                       # What read queue length does an incoming req see (Count)
system.far_mem_ctrl1.rdQLenPdf::69                  0                       # What read queue length does an incoming req see (Count)
system.far_mem_ctrl1.rdQLenPdf::70                  0                       # What read queue length does an incoming req see (Count)
system.far_mem_ctrl1.rdQLenPdf::71                  0                       # What read queue length does an incoming req see (Count)
system.far_mem_ctrl1.rdQLenPdf::72                  0                       # What read queue length does an incoming req see (Count)
system.far_mem_ctrl1.rdQLenPdf::73                  0                       # What read queue length does an incoming req see (Count)
system.far_mem_ctrl1.rdQLenPdf::74                  0                       # What read queue length does an incoming req see (Count)
system.far_mem_ctrl1.rdQLenPdf::75                  0                       # What read queue length does an incoming req see (Count)
system.far_mem_ctrl1.rdQLenPdf::76                  0                       # What read queue length does an incoming req see (Count)
system.far_mem_ctrl1.rdQLenPdf::77                  0                       # What read queue length does an incoming req see (Count)
system.far_mem_ctrl1.rdQLenPdf::78                  0                       # What read queue length does an incoming req see (Count)
system.far_mem_ctrl1.rdQLenPdf::79                  0                       # What read queue length does an incoming req see (Count)
system.far_mem_ctrl1.rdQLenPdf::80                  0                       # What read queue length does an incoming req see (Count)
system.far_mem_ctrl1.rdQLenPdf::81                  0                       # What read queue length does an incoming req see (Count)
system.far_mem_ctrl1.rdQLenPdf::82                  0                       # What read queue length does an incoming req see (Count)
system.far_mem_ctrl1.rdQLenPdf::83                  0                       # What read queue length does an incoming req see (Count)
system.far_mem_ctrl1.rdQLenPdf::84                  0                       # What read queue length does an incoming req see (Count)
system.far_mem_ctrl1.rdQLenPdf::85                  0                       # What read queue length does an incoming req see (Count)
system.far_mem_ctrl1.rdQLenPdf::86                  0                       # What read queue length does an incoming req see (Count)
system.far_mem_ctrl1.rdQLenPdf::87                  0                       # What read queue length does an incoming req see (Count)
system.far_mem_ctrl1.rdQLenPdf::88                  0                       # What read queue length does an incoming req see (Count)
system.far_mem_ctrl1.rdQLenPdf::89                  0                       # What read queue length does an incoming req see (Count)
system.far_mem_ctrl1.rdQLenPdf::90                  0                       # What read queue length does an incoming req see (Count)
system.far_mem_ctrl1.rdQLenPdf::91                  0                       # What read queue length does an incoming req see (Count)
system.far_mem_ctrl1.rdQLenPdf::92                  0                       # What read queue length does an incoming req see (Count)
system.far_mem_ctrl1.rdQLenPdf::93                  0                       # What read queue length does an incoming req see (Count)
system.far_mem_ctrl1.rdQLenPdf::94                  0                       # What read queue length does an incoming req see (Count)
system.far_mem_ctrl1.rdQLenPdf::95                  0                       # What read queue length does an incoming req see (Count)
system.far_mem_ctrl1.rdQLenPdf::96                  0                       # What read queue length does an incoming req see (Count)
system.far_mem_ctrl1.rdQLenPdf::97                  0                       # What read queue length does an incoming req see (Count)
system.far_mem_ctrl1.rdQLenPdf::98                  0                       # What read queue length does an incoming req see (Count)
[...]
system.membus.pktCount_system.generators01.port::system.mem_ctrl0.port          675                       # Packet count per connected requestor and responder (Count)
system.membus.pktCount_system.generators01.port::system.mem_ctrl1.port          723                       # Packet count per connected requestor and responder (Count)
system.membus.pktCount_system.generators01.port::total         1398                       # Packet count per connected requestor and responder (Count)
system.membus.pktCount_system.generators02.port::system.mem_ctrl0.port          724                       # Packet count per connected requestor and responder (Count)
system.membus.pktCount_system.generators02.port::system.mem_ctrl1.port          745                       # Packet count per connected requestor and responder (Count)
system.membus.pktCount_system.generators02.port::total         1469                       # Packet count per connected requestor and responder (Count)
system.membus.pktCount_system.generators03.port::system.mem_ctrl0.port          754                       # Packet count per connected requestor and responder (Count)
system.membus.pktCount_system.generators03.port::system.mem_ctrl1.port          705                       # Packet count per connected requestor and responder (Count)
system.membus.pktCount_system.generators03.port::total         1459                       # Packet count per connected requestor and responder (Count)
system.membus.pktCount_system.generators04.port::system.mem_ctrl0.port          739                       # Packet count per connected requestor and responder (Count)
system.membus.pktCount_system.generators04.port::system.mem_ctrl1.port          744                       # Packet count per connected requestor and responder (Count)
system.membus.pktCount_system.generators04.port::total         1483                       # Packet count per connected requestor and responder (Count)
system.membus.pktCount_system.generators05.port::system.mem_ctrl0.port          752                       # Packet count per connected requestor and responder (Count)
system.membus.pktCount_system.generators05.port::system.mem_ctrl1.port          732                       # Packet count per connected requestor and responder (Count)
system.membus.pktCount_system.generators05.port::total         1484                       # Packet count per connected requestor and responder (Count)
system.membus.pktCount_system.generators06.port::system.mem_ctrl0.port          779                       # Packet count per connected requestor and responder (Count)
system.membus.pktCount_system.generators06.port::system.mem_ctrl1.port          723                       # Packet count per connected requestor and responder (Count)
system.membus.pktCount_system.generators06.port::total         1502                       # Packet count per connected requestor and responder (Count)
system.membus.pktCount_system.generators07.port::system.mem_ctrl0.port          698                       # Packet count per connected requestor and responder (Count)
system.membus.pktCount_system.generators07.port::system.mem_ctrl1.port          753                       # Packet count per connected requestor and responder (Count)
system.membus.pktCount_system.generators07.port::total         1451                       # Packet count per connected requestor and responder (Count)
system.membus.pktCount_system.generators08.port::system.mem_ctrl0.port          789                       # Packet count per connected requestor and responder (Count)
system.membus.pktCount_system.generators08.port::system.mem_ctrl1.port          715                       # Packet count per connected requestor and responder (Count)
system.membus.pktCount_system.generators08.port::total         1504                       # Packet count per connected requestor and responder (Count)
system.membus.pktCount_system.generators09.port::system.mem_ctrl0.port          786                       # Packet count per connected requestor and responder (Count)
system.membus.pktCount_system.generators09.port::system.mem_ctrl1.port          687                       # Packet count per connected requestor and responder (Count)
system.membus.pktCount_system.generators09.port::total         1473                       # Packet count per connected requestor and responder (Count)
system.membus.pktCount_system.generators10.port::system.mem_ctrl0.port          714                       # Packet count per connected requestor and responder (Count)
system.membus.pktCount_system.generators10.port::system.mem_ctrl1.port          750                       # Packet count per connected requestor and responder (Count)
system.membus.pktCount_system.generators10.port::total         1464                       # Packet count per connected requestor and responder (Count)
system.membus.pktCount_system.generators11.port::system.mem_ctrl0.port          732                       # Packet count per connected requestor and responder (Count)
system.membus.pktCount_system.generators11.port::system.mem_ctrl1.port          758                       # Packet count per connected requestor and responder (Count)
system.membus.pktCount_system.generators11.port::total         1490                       # Packet count per connected requestor and responder (Count)
system.membus.pktCount_system.generators12.port::system.mem_ctrl0.port          754                       # Packet count per connected requestor and responder (Count)
system.membus.pktCount_system.generators12.port::system.mem_ctrl1.port          725                       # Packet count per connected requestor and responder (Count)
system.membus.pktCount_system.generators12.port::total         1479                       # Packet count per connected requestor and responder (Count)
system.membus.pktCount_system.generators13.port::system.mem_ctrl0.port          688                       # Packet count per connected requestor and responder (Count)
system.membus.pktCount_system.generators13.port::system.mem_ctrl1.port          778                       # Packet count per connected requestor and responder (Count)
system.membus.pktCount_system.generators13.port::total         1466                       # Packet count per connected requestor and responder (Count)
system.membus.pktCount_system.generators14.port::system.mem_ctrl0.port          719                       # Packet count per connected requestor and responder (Count)
system.membus.pktCount_system.generators14.port::system.mem_ctrl1.port          747                       # Packet count per connected requestor and responder (Count)
system.membus.pktCount_system.generators14.port::total         1466                       # Packet count per connected requestor and responder (Count)
system.membus.pktCount_system.generators15.port::system.mem_ctrl0.port          765                       # Packet count per connected requestor and responder (Count)
system.membus.pktCount_system.generators15.port::system.mem_ctrl1.port          742                       # Packet count per connected requestor and responder (Count)
system.membus.pktCount_system.generators15.port::total         1507                       # Packet count per connected requestor and responder (Count)
system.membus.pktCount::total                   23624                       # Packet count per connected requestor and responder (Count)
system.membus.pktSize_system.generators00.port::system.mem_ctrl0.port        24704                       # Cumulative packet size per connected requestor and responder (Byte)
system.membus.pktSize_system.generators00.port::system.mem_ctrl1.port        23744                       # Cumulative packet size per connected requestor and responder (Byte)
system.membus.pktSize_system.generators00.port::total        48448                       # Cumulative packet size per connected requestor and responder (Byte)
system.membus.pktSize_system.generators01.port::system.mem_ctrl0.port        21376                       # Cumulative packet size per connected requestor and responder (Byte)
system.membus.pktSize_system.generators01.port::system.mem_ctrl1.port        22912                       # Cumulative packet size per connected requestor and responder (Byte)
system.membus.pktSize_system.generators01.port::total        44288                       # Cumulative packet size per connected requestor and responder (Byte)
system.membus.pktSize_system.generators02.port::system.mem_ctrl0.port        23040                       # Cumulative packet size per connected requestor and responder (Byte)
system.membus.pktSize_system.generators02.port::system.mem_ctrl1.port        23552                       # Cumulative packet size per connected requestor and responder (Byte)
system.membus.pktSize_system.generators02.port::total        46592                       # Cumulative packet size per connected requestor and responder (Byte)
system.membus.pktSize_system.generators03.port::system.mem_ctrl0.port        23936                       # Cumulative packet size per connected requestor and responder (Byte)
system.membus.pktSize_system.generators03.port::system.mem_ctrl1.port        22144                       # Cumulative packet size per connected requestor and responder (Byte)
system.membus.pktSize_system.generators03.port::total        46080                       # Cumulative packet size per connected requestor and responder (Byte)
system.membus.pktSize_system.generators04.port::system.mem_ctrl0.port        23424                       # Cumulative packet size per connected requestor and responder (Byte)
system.membus.pktSize_system.generators04.port::system.mem_ctrl1.port        23424                       # Cumulative packet size per connected requestor and responder (Byte)
system.membus.pktSize_system.generators04.port::total        46848                       # Cumulative packet size per connected requestor and responder (Byte)
system.membus.pktSize_system.generators05.port::system.mem_ctrl0.port        23872                       # Cumulative packet size per connected requestor and responder (Byte)
system.membus.pktSize_system.generators05.port::system.mem_ctrl1.port        23104                       # Cumulative packet size per connected requestor and responder (Byte)
system.membus.pktSize_system.generators05.port::total        46976                       # Cumulative packet size per connected requestor and responder (Byte)
system.membus.pktSize_system.generators06.port::system.mem_ctrl0.port        24640                       # Cumulative packet size per connected requestor and responder (Byte)
system.membus.pktSize_system.generators06.port::system.mem_ctrl1.port        22912                       # Cumulative packet size per connected requestor and responder (Byte)
system.membus.pktSize_system.generators06.port::total        47552                       # Cumulative packet size per connected requestor and responder (Byte)
system.membus.pktSize_system.generators07.port::system.mem_ctrl0.port        22208                       # Cumulative packet size per connected requestor and responder (Byte)
system.membus.pktSize_system.generators07.port::system.mem_ctrl1.port        23936                       # Cumulative packet size per connected requestor and responder (Byte)
system.membus.pktSize_system.generators07.port::total        46144                       # Cumulative packet size per connected requestor and responder (Byte)
system.membus.pktSize_system.generators08.port::system.mem_ctrl0.port        24768                       # Cumulative packet size per connected requestor and responder (Byte)
system.membus.pktSize_system.generators08.port::system.mem_ctrl1.port        22720                       # Cumulative packet size per connected requestor and responder (Byte)
system.membus.pktSize_system.generators08.port::total        47488                       # Cumulative packet size per connected requestor and responder (Byte)
system.membus.pktSize_system.generators09.port::system.mem_ctrl0.port        24832                       # Cumulative packet size per connected requestor and responder (Byte)
system.membus.pktSize_system.generators09.port::system.mem_ctrl1.port        21888                       # Cumulative packet size per connected requestor and responder (Byte)
system.membus.pktSize_system.generators09.port::total        46720                       # Cumulative packet size per connected requestor and responder (Byte)
system.membus.pktSize_system.generators10.port::system.mem_ctrl0.port        22656                       # Cumulative packet size per connected requestor and responder (Byte)
system.membus.pktSize_system.generators10.port::system.mem_ctrl1.port        23744                       # Cumulative packet size per connected requestor and responder (Byte)
system.membus.pktSize_system.generators10.port::total        46400                       # Cumulative packet size per connected requestor and responder (Byte)
system.membus.pktSize_system.generators11.port::system.mem_ctrl0.port        23232                       # Cumulative packet size per connected requestor and responder (Byte)
system.membus.pktSize_system.generators11.port::system.mem_ctrl1.port        24000                       # Cumulative packet size per connected requestor and responder (Byte)
system.membus.pktSize_system.generators11.port::total        47232                       # Cumulative packet size per connected requestor and responder (Byte)
system.membus.pktSize_system.generators12.port::system.mem_ctrl0.port        23808                       # Cumulative packet size per connected requestor and responder (Byte)
system.membus.pktSize_system.generators12.port::system.mem_ctrl1.port        22976                       # Cumulative packet size per connected requestor and responder (Byte)
system.membus.pktSize_system.generators12.port::total        46784                       # Cumulative packet size per connected requestor and responder (Byte)
system.membus.pktSize_system.generators13.port::system.mem_ctrl0.port        21824                       # Cumulative packet size per connected requestor and responder (Byte)
system.membus.pktSize_system.generators13.port::system.mem_ctrl1.port        24768                       # Cumulative packet size per connected requestor and responder (Byte)
system.membus.pktSize_system.generators13.port::total        46592                       # Cumulative packet size per connected requestor and responder (Byte)
system.membus.pktSize_system.generators14.port::system.mem_ctrl0.port        22656                       # Cumulative packet size per connected requestor and responder (Byte)
system.membus.pktSize_system.generators14.port::system.mem_ctrl1.port        23616                       # Cumulative packet size per connected requestor and responder (Byte)
system.membus.pktSize_system.generators14.port::total        46272                       # Cumulative packet size per connected requestor and responder (Byte)
system.membus.pktSize_system.generators15.port::system.mem_ctrl0.port        24064                       # Cumulative packet size per connected requestor and responder (Byte)
system.membus.pktSize_system.generators15.port::system.mem_ctrl1.port        23552                       # Cumulative packet size per connected requestor and responder (Byte)
system.membus.pktSize_system.generators15.port::total        47616                       # Cumulative packet size per connected requestor and responder (Byte)
system.membus.pktSize::total                   748032                       # Cumulative packet size per connected requestor and responder (Byte)
system.membus.power_state.pwrStateResidencyTicks::UNDEFINED    100008000                       # Cumulative time (in ticks) in various power states (Tick)
system.membus.reqLayer0.occupancy             2697877                       # Layer occupancy (ticks) (Tick)
system.membus.reqLayer0.utilization               0.0                       # Layer utilization (Ratio)
system.membus.reqLayer1.occupancy             3279403                       # Layer occupancy (ticks) (Tick)
system.membus.reqLayer1.utilization               0.0                       # Layer utilization (Ratio)
system.membus.respLayer0.occupancy             255809                       # Layer occupancy (ticks) (Tick)
system.membus.respLayer0.utilization              0.0                       # Layer utilization (Ratio)
system.membus.respLayer1.occupancy             219854                       # Layer occupancy (ticks) (Tick)
system.membus.respLayer1.utilization              0.0                       # Layer utilization (Ratio)
system.membus.respLayer10.occupancy            243844                       # Layer occupancy (ticks) (Tick)
system.membus.respLayer10.utilization             0.0                       # Layer utilization (Ratio)
system.membus.respLayer11.occupancy            244473                       # Layer occupancy (ticks) (Tick)
system.membus.respLayer11.utilization             0.0                       # Layer utilization (Ratio)
system.membus.respLayer12.occupancy            237840                       # Layer occupancy (ticks) (Tick)
system.membus.respLayer12.utilization             0.0                       # Layer utilization (Ratio)
system.membus.respLayer13.occupancy            245125                       # Layer occupancy (ticks) (Tick)
system.membus.respLayer13.utilization             0.0                       # Layer utilization (Ratio)
system.membus.respLayer14.occupancy            237830                       # Layer occupancy (ticks) (Tick)
system.membus.respLayer14.utilization             0.0                       # Layer utilization (Ratio)
system.membus.respLayer15.occupancy            245044                       # Layer occupancy (ticks) (Tick)
system.membus.respLayer15.utilization             0.0                       # Layer utilization (Ratio)
system.membus.respLayer2.occupancy             242940                       # Layer occupancy (ticks) (Tick)
system.membus.respLayer2.utilization              0.0                       # Layer utilization (Ratio)
system.membus.respLayer3.occupancy             233490                       # Layer occupancy (ticks) (Tick)
system.membus.respLayer3.utilization              0.0                       # Layer utilization (Ratio)
system.membus.respLayer4.occupancy             241898                       # Layer occupancy (ticks) (Tick)
system.membus.respLayer4.utilization              0.0                       # Layer utilization (Ratio)
system.membus.respLayer5.occupancy             237110                       # Layer occupancy (ticks) (Tick)
system.membus.respLayer5.utilization              0.0                       # Layer utilization (Ratio)
system.membus.respLayer6.occupancy             247388                       # Layer occupancy (ticks) (Tick)
system.membus.respLayer6.utilization              0.0                       # Layer utilization (Ratio)
system.membus.respLayer7.occupancy             230519                       # Layer occupancy (ticks) (Tick)
system.membus.respLayer7.utilization              0.0                       # Layer utilization (Ratio)
system.membus.respLayer8.occupancy             252378                       # Layer occupancy (ticks) (Tick)
system.membus.respLayer8.utilization              0.0                       # Layer utilization (Ratio)
system.membus.respLayer9.occupancy             240041                       # Layer occupancy (ticks) (Tick)
system.membus.respLayer9.utilization              0.0                       # Layer utilization (Ratio)
system.workload.inst.arm                            0                       # number of arm instructions executed (Count)
system.workload.inst.quiesce                        0                       # number of quiesce instructions executed (Count)

---------- End Simulation Statistics   ----------
