
---------- Begin Simulation Statistics ----------
simSeconds                                   0.000100                       # Number of seconds simulated (Second)
simTicks                                     99999999                       # Number of ticks simulated (Tick)
finalTick                                    99999999                       # Number of ticks from beginning of simulation (restored from checkpoints and never reset) (Tick)
simFreq                                  1000000000000                       # The number of ticks per simulated second ((Tick/Second))
hostSeconds                                      0.30                       # Real time elapsed on the host (Second)
hostTickRate                                333469590                       # The number of ticks simulated per host second (ticks/s) ((Tick/Second))
hostMemory                                    8501664                       # Number of bytes of host memory used (Byte)
system.clk_domain.clock                           200                       # Clock period in ticks (Tick)
system.clk_domain.voltage_domain.voltage            1                       # Voltage in Volts (Volt)
system.far_mem_ctrl0.avgPriority_writebacks::samples      5768.00                       # Average QoS priority value for accepted requests (Count)
system.far_mem_ctrl0.priorityMinLatency  0.000000317492                       # per QoS priority minimum request to response latency (Second)
system.far_mem_ctrl0.priorityMaxLatency  0.000002369492                       # per QoS priority maximum request to response latency (Second)
system.far_mem_ctrl0.numReadWriteTurnArounds            0                       # Number of turnarounds from READ to WRITE (Count)
system.far_mem_ctrl0.numWriteReadTurnArounds            0                       # Number of turnarounds from WRITE to READ (Count)
system.far_mem_ctrl0.numStayReadState           17231                       # Number of times bus staying in READ state (Count)
system.far_mem_ctrl0.numStayWriteState              0                       # Number of times bus staying in WRITE state (Count)
system.far_mem_ctrl0.readReqs                    5768                       # Number of read requests accepted (Count)
system.far_mem_ctrl0.writeReqs                      0                       # Number of write requests accepted (Count)
system.far_mem_ctrl0.readBursts                  5768                       # Number of controller read bursts, including those serviced by the write queue (Count)
system.far_mem_ctrl0.writeBursts                    0                       # Number of controller write bursts, including those merged in the write queue (Count)
system.far_mem_ctrl0.servicedByWrQ                  0                       # Number of controller read bursts serviced by the write queue (Count)
system.far_mem_ctrl0.mergedWrBursts                 0                       # Number of controller write bursts merged with an existing one (Count)
system.far_mem_ctrl0.neitherReadNorWriteReqs            0                       # Number of requests that are neither read nor write (Count)
system.far_mem_ctrl0.avgRdQLen                  17.92                       # Average read queue length when enqueuing ((Count/Tick))
system.far_mem_ctrl0.avgWrQLen                   0.00                       # Average write queue length when enqueuing ((Count/Tick))
system.far_mem_ctrl0.numRdRetry                     0                       # Number of times read queue was full causing retry (Count)
system.far_mem_ctrl0.numWrRetry                     0                       # Number of times write queue was full causing retry (Count)
system.far_mem_ctrl0.readPktSize::0                 0                       # Read request sizes (log2) (Count)
system.far_mem_ctrl0.readPktSize::1                 0                       # Read request sizes (log2) (Count)
system.far_mem_ctrl0.readPktSize::2                 0                       # Read request sizes (log2) (Count)
system.far_mem_ctrl0.readPktSize::3                 0                       # Read request sizes (log2) (Count)
system.far_mem_ctrl0.readPktSize::4                 0                       # Read request sizes (log2) (Count)
system.far_mem_ctrl0.readPktSize::5                 0                       # Read request sizes (log2) (Count)
system.far_mem_ctrl0.readPktSize::6              5768                       # Read request sizes (log2) (Count)
system.far_mem_ctrl0.writePktSize::0                0                       # Write request sizes (log2) (Count)
system.far_mem_ctrl0.writePktSize::1                0                       # Write request sizes (log2) (Count)
system.far_mem_ctrl0.writePktSize::2                0                       # Write request sizes (log2) (Count)
system.far_mem_ctrl0.writePktSize::3                0                       # Write request sizes (log2) (Count)
system.far_mem_ctrl0.writePktSize::4                0                       # Write request sizes (log2) (Count)
system.far_mem_ctrl0.writePktSize::5                0                       # Write request sizes (log2) (Count)
system.far_mem_ctrl0.writePktSize::6                0                       # Write request sizes (log2) (Count)
system.far_mem_ctrl0.rdQLenPdf::0                   3                       # What read queue length does an incoming req see (Count)
system.far_mem_ctrl0.rdQLenPdf::1                  11                       # What read queue length does an incoming req see (Count)
system.far_mem_ctrl0.rdQLenPdf::2                  18                       # What read queue length does an incoming req see (Count)
system.far_mem_ctrl0.rdQLenPdf::3                  25                       # What read queue length does an incoming req see (Count)
system.far_mem_ctrl0.rdQLenPdf::4                  32                       # What read queue length does an incoming req see (Count)
system.far_mem_ctrl0.rdQLenPdf::5                  56                       # What read queue length does an incoming req see (Count)
system.far_mem_ctrl0.rdQLenPdf::6                 107                       # What read queue length does an incoming req see (Count)
system.far_mem_ctrl0.rdQLenPdf::7                 187                       # What read queue length does an incoming req see (Count)
system.far_mem_ctrl0.rdQLenPdf::8                 266                       # What read queue length does an incoming req see (Count)
system.far_mem_ctrl0.rdQLenPdf::9                 329                       # What read queue length does an incoming req see (Count)
system.far_mem_ctrl0.rdQLenPdf::10                374                       # What read queue length does an incoming req see (Count)
system.far_mem_ctrl0.rdQLenPdf::11                400                       # What read queue length does an incoming req see (Count)
system.far_mem_ctrl0.rdQLenPdf::12                431                       # What read queue length does an incoming req see (Count)
system.far_mem_ctrl0.rdQLenPdf::13                452                       # What read queue length does an incoming req see (Count)
system.far_mem_ctrl0.rdQLenPdf::14                481                       # What read queue length does an incoming req see (Count)
system.far_mem_ctrl0.rdQLenPdf::15                501                       # What read queue length does an incoming req see (Count)
system.far_mem_ctrl0.rdQLenPdf::16                516                       # What read queue length does an incoming req see (Count)
system.far_mem_ctrl0.rdQLenPdf::17                449                       # What read queue length does an incoming req see (Count)
system.far_mem_ctrl0.rdQLenPdf::18                345                       # What read queue length does an incoming req see (Count)
system.far_mem_ctrl0.rdQLenPdf::19                252                       # What read queue length does an incoming req see (Count)
system.far_mem_ctrl0.rdQLenPdf::20                153                       # What read queue length does an incoming req see (Count)
system.far_mem_ctrl0.rdQLenPdf::21                 94                       # What read queue length does an incoming req see (Count)
system.far_mem_ctrl0.rdQLenPdf::22                 63                       # What read queue length does an incoming req see (Count)
system.far_mem_ctrl0.rdQLenPdf::23                 41                       # What read queue length does an incoming req see (Count)
system.far_mem_ctrl0.rdQLenPdf::24                 23                       # What read queue length does an incoming req see (Count)
system.far_mem_ctrl0.rdQLenPdf::25                 17                       # What read queue length does an incoming req see (Count)
system.far_mem_ctrl0.rdQLenPdf::26                 13                       # What read queue length does an incoming req see (Count)
system.far_mem_ctrl0.rdQLenPdf::27                  7                       # What read queue length does an incoming req see (Count)
system.far_mem_ctrl0.rdQLenPdf::28                  6                       # What read queue length does an incoming req see (Count)
system.far_mem_ctrl0.rdQLenPdf::29                  4                       # What read queue length does an incoming req see (Count)
system.far_mem_ctrl0.rdQLenPdf::30                 15                       # What read queue length does an incoming req see (Count)
system.far_mem_ctrl0.rdQLenPdf::31                  7                       # What read queue length does an incoming req see (Count)
system.far_mem_ctrl0.rdQLenPdf::32                  3                       # What read queue length does an incoming req see (Count)
system.far_mem_ctrl0.rdQLenPdf::33                  5                       # What read queue length does an incoming req see (Count)
system.far_mem_ctrl0.rdQLenPdf::34                  2                       # What read queue length does an incoming req see (Count)
system.far_mem_ctrl0.rdQLenPdf::35                  4                       # What read queue length does an incoming req see (Count)
system.far_mem_ctrl0.rdQLenPdf::36                  1                       # What read queue length does an incoming req see (Count)
system.far_mem_ctrl0.rdQLenPdf::37                  3                       # What read queue length does an incoming req see (Count)
system.far_mem_ctrl0.rdQLenPdf::38                  4                       # What read queue length does an incoming req see (Count)
system.far_mem_ctrl0.rdQLenPdf::39                  7                       # What read queue length does an incoming req see (Count)
system.far_mem_ctrl0.rdQLenPdf::40                  8                       # What read queue length does an incoming req see (Count)
system.far_mem_ctrl0.rdQLenPdf::41                  9                       # What read queue length does an incoming req see (Count)
system.far_mem_ctrl0.rdQLenPdf::42                  3                       # What read queue length does an incoming req see (Count)
system.far_mem_ctrl0.rdQLenPdf::43                  2                       # What read queue length does an incoming req see (Count)
system.far_mem_ctrl0.rdQLenPdf::44                  2                       # What read queue length does an incoming req see (Count)
system.far_mem_ctrl0.rdQLenPdf::45                  2                       # What read queue length does an incoming req see (Count)
system.far_mem_ctrl0.rdQLenPdf::46                  9                       # What read queue length does an incoming req see (Count)
system.far_mem_ctrl0.rdQLenPdf::47                  4                       # What read queue length does an incoming req see (Count)
system.far_mem_ctrl0.rdQLenPdf::48                  1                       # What read queue length does an incoming req see (Count)
system.far_mem_ctrl0.rdQLenPdf::49                  1                       # What read queue length does an incoming req see (Count)
system.far_mem_ctrl0.rdQLenPdf::50                  5                       # What read queue length does an incoming req see (Count)
system.far_mem_ctrl0.rdQLenPdf::51                  6                       # What read queue length does an incoming req see (Count)
system.far_mem_ctrl0.rdQLenPdf::52                  7                       # What read queue length does an incoming req see (Count)
system.far_mem_ctrl0.rdQLenPdf::53                  1                       # What read queue length does an incoming req see (Count)
system.far_mem_ctrl0.rdQLenPdf::54                  1                       # What read queue length does an incoming req see (Count)
system.far_mem_ctrl0.rdQLenPdf::55                  0                       # What read queue length does an incoming req see (Count)
system.far_mem_ctrl0.rdQLenPdf::56                  0                       # What read queue length does an incoming req see (Count)
system.far_mem_ctrl0.rdQLenPdf::57                  0                       # What read queue length does an incoming req see (Count)
system.far_mem_ctrl0.rdQLenPdf::58                  0                       # What read queue length does an incoming req see (Count)
system.far_mem_ctrl0.rdQLenPdf::59                  0                       # What read queue length does an incoming req see (Count)
system.far_mem_ctrl0.rdQLenPdf::60                  0                       # What read queue length does an incoming req see (Count)
system.far_mem_ctrl0.rdQLenPdf::61                  0                       # What read queue length does an incoming req see (Count)
system.far_mem_ctrl0.rdQLenPdf::62                  0                       # What read queue length does an incoming req see (Count)
system.far_mem_ctrl0.rdQLenPdf::63                  0                       # What read queue length does an incoming req see (Count)
system.far_mem_ctrl0.rdQLenPdf::64                  0                       # What read queue length does an incoming req see (Count)
system.far_mem_ctrl0.rdQLenPdf::65                  0                       # What read queue length does an incoming req see (Count)
system.far_mem_ctrl0.rdQLenPdf::66                  0                       # What read queue length does an incoming req see (Count)
system.far_mem_ctrl0.rdQLenPdf::67                  0                       # What read queue length does an incoming req see (Count)
system.far_mem_ctrl0.rdQLenPdf::68                  0                       # What read queue length does an incoming req see (Count)
system.far_mem_ctrl0.rdQLenPdf::69                  0                       # What read queue length does an incoming req see (Count)
system.far_mem_ctrl0.rdQLenPdf::70                  0                       # What read queue length does an incoming req see (Count)
system.far_mem_ctrl0.rdQLenPdf::71                  0                       # What read queue length does an incoming req see (Count)
system.far_mem_ctrl0.rdQLenPdf::72                  0                       # What read queue length does an incoming req see (Count)
system.far_mem_ctrl0.rdQLenPdf::73                  0                       # What read queue length does an incoming req see (Count)
system.far_mem_ctrl0.rdQLenPdf::74                  0                       # What read queue length does an incoming req see (Count)
system.far_mem_ctrl0.rdQLenPdf::75                  0                       # What read queue length does an incoming req see (Count)
system.far_mem_ctrl0.rdQLenPdf::76                  0                       # What read queue length does an incoming req see (Count)
system.far_mem_ctrl0.rdQLenPdf::77                  0                       # What read queue length does an incoming req see (Count)
system.far_mem_ctrl0.rdQLenPdf::78                  0                       # What read queue length does an incoming req see (Count)
system.far_mem_ctrl0.rdQLenPdf::79                  0                       # What read queue length does an incoming req see (Count)
system.far_mem_ctrl0.rdQLenPdf::80                  0                       # What read queue length does an incoming req see (Count)
system.far_mem_ctrl0.rdQLenPdf::81                  0                       # What read queue length does an incoming req see (Count)
system.far_mem_ctrl0.rdQLenPdf::82                  0                       # What read queue length does an incoming req see (Count)
system.far_mem_ctrl0.rdQLenPdf::83                  0                       # What read queue length does an incoming req see (Count)
system.far_mem_ctrl0.rdQLenPdf::84                  0                       # What read queue length does an incoming req see (Count)
system.far_mem_ctrl0.rdQLenPdf::85                  0                       # What read queue length does an incoming req see (Count)
system.far_mem_ctrl0.rdQLenPdf::86                  0                       # What read queue length does an incoming req see (Count)
system.far_mem_ctrl0.rdQLenPdf::87                  0                       # What read queue length does an incoming req see (Count)
system.far_mem_ctrl0.rdQLenPdf::88                  0                       # What read queue length does an incoming req see (Count)
system.far_mem_ctrl0.rdQLenPdf::89                  0                       # What read queue length does an incoming req see (Count)
system.far_mem_ctrl0.rdQLenPdf::90                  0                       # What read queue length does an incoming req see (Count)
system.far_mem_ctrl0.rdQLenPdf::91                  0                       # What read queue length does an incoming req see (Count)
system.far_mem_ctrl0.rdQLenPdf::92                  0                       # What read queue length does an incoming req see (Count)
system.far_mem_ctrl0.rdQLenPdf::93                  0                       # What read queue length does an incoming req see (Count)
system.far_mem_ctrl0.rdQLenPdf::94                  0                       # What read queue length does an incoming req see (Count)
system.far_mem_ctrl0.rdQLenPdf::95                  0                       # What read queue length does an incoming req see (Count)
system.far_mem_ctrl0.rdQLenPdf::96                  0                       # What read queue length does an incoming req see (Count)
system.far_mem_ctrl0.rdQLenPdf::97                  0                       # What read queue length does an incoming req see (Count)
system.far_mem_ctrl0.rdQLenPdf::98                  0                       # What read queue length does an incoming req see (Count)
system.far_mem_ctrl0.rdQLenPdf::99                  0                       # What read queue length does an incoming req see (Count)
system.far_mem_ctrl0.rdQLenPdf::100                 0                       # What read queue length does an incoming req see (Count)
system.far_mem_ctrl0.rdQLenPdf::101                 0                       # What read queue length does an incoming req see (Count)
system.far_mem_ctrl0.rdQLenPdf::102                 0                       # What read queue length does an incoming req see (Count)
system.far_mem_ctrl0.rdQLenPdf::103                 0                       # What read queue length does an incoming req see (Count)
system.far_mem_ctrl0.rdQLenPdf::104                 0                       # What read queue length does an incoming req see (Count)
system.far_mem_ctrl0.rdQLenPdf::105                 0                       # What read queue length does an incoming req see (Count)
system.far_mem_ctrl0.rdQLenPdf::106                 0                       # What read queue length does an incoming req see (Count)
system.far_mem_ctrl0.rdQLenPdf::107                 0                       # What read queue length does an incoming req see (Count)
system.far_mem_ctrl0.rdQLenPdf::108                 0                       # What read queue length does an incoming req see (Count)
system.far_mem_ctrl0.rdQLenPdf::109                 0                       # What read queue length does an incoming req see (Count)
system.far_mem_ctrl0.rdQLenPdf::110                 0                       # What read queue length does an incoming req see (Count)
system.far_mem_ctrl0.rdQLenPdf::111                 0                       # What read queue length does an incoming req see (Count)
system.far_mem_ctrl0.rdQLenPdf::112                 0                       # What read queue length does an incoming req see (Count)
system.far_mem_ctrl0.rdQLenPdf::113                 0                       # What read queue length does an incoming req see (Count)
system.far_mem_ctrl0.rdQLenPdf::114                 0                       # What read queue length does an incoming req see (Count)
system.far_mem_ctrl0.rdQLenPdf::115                 0                       # What read queue length does an incoming req see (Count)
system.far_mem_ctrl0.rdQLenPdf::116                 0                       # What read queue length does an incoming req see (Count)
system.far_mem_ctrl0.rdQLenPdf::117                 0                       # What read queue length does an incoming req see (Count)
system.far_mem_ctrl0.rdQLenPdf::118                 0                       # What read queue length does an incoming req see (Count)
system.far_mem_ctrl0.rdQLenPdf::119                 0                       # What read queue length does an incoming req see (Count)
system.far_mem_ctrl0.rdQLenPdf::120                 0                       # What read queue length does an incoming req see (Count)
system.far_mem_ctrl0.rdQLenPdf::121                 0                       # What read queue length does an incoming req see (Count)
system.far_mem_ctrl0.rdQLenPdf::122                 0                       # What read queue length does an incoming req see (Count)
system.far_mem_ctrl0.rdQLenPdf::123                 0                       # What read queue length does an incoming req see (Count)
system.far_mem_ctrl0.rdQLenPdf::124                 0                       # What read queue length does an incoming req see (Count)
system.far_mem_ctrl0.rdQLenPdf::125                 0                       # What read queue length does an incoming req see (Count)
system.far_mem_ctrl0.rdQLenPdf::126                 0                       # What read queue length does an incoming req see (Count)
system.far_mem_ctrl0.rdQLenPdf::127                 0                       # What read queue length does an incoming req see (Count)
system.far_mem_ctrl0.wrQLenPdf::0                   0                       # What write queue length does an incoming req see (Count)
system.far_mem_ctrl0.wrQLenPdf::1                   0                       # What write queue length does an incoming req see (Count)
system.far_mem_ctrl0.wrQLenPdf::2                   0                       # What write queue length does an incoming req see (Count)
system.far_mem_ctrl0.wrQLenPdf::3                   0                       # What write queue length does an incoming req see (Count)
system.far_mem_ctrl0.wrQLenPdf::4                   0                       # What write queue length does an incoming req see (Count)
system.far_mem_ctrl0.wrQLenPdf::5                   0                       # What write queue length does an incoming req see (Count)
system.far_mem_ctrl0.wrQLenPdf::6                   0                       # What write queue length does an incoming req see (Count)
system.far_mem_ctrl0.wrQLenPdf::7                   0                       # What write queue length does an incoming req see (Count)
system.far_mem_ctrl0.wrQLenPdf::8                   0                       # What write queue length does an incoming req see (Count)
system.far_mem_ctrl0.wrQLenPdf::9                   0                       # What write queue length does an incoming req see (Count)
system.far_mem_ctrl0.wrQLenPdf::10                  0                       # What write queue length does an incoming req see (Count)
system.far_mem_ctrl0.wrQLenPdf::11                  0                       # What write queue length does an incoming req see (Count)
system.far_mem_ctrl0.wrQLenPdf::12                  0                       # What write queue length does an incoming req see (Count)
system.far_mem_ctrl0.wrQLenPdf::13                  0                       # What write queue length does an incoming req see (Count)
system.far_mem_ctrl0.wrQLenPdf::14                  0                       # What write queue length does an incoming req see (Count)
system.far_mem_ctrl0.wrQLenPdf::15                  0                       # What write queue length does an incoming req see (Count)
system.far_mem_ctrl0.wrQLenPdf::16                  0                       # What write queue length does an incoming req see (Count)
system.far_mem_ctrl0.wrQLenPdf::17                  0                       # What write queue length does an incoming req see (Count)
system.far_mem_ctrl0.wrQLenPdf::18                  0                       # What write queue length does an incoming req see (Count)
system.far_mem_ctrl0.wrQLenPdf::19                  0                       # What write queue length does an incoming req see (Count)
system.far_mem_ctrl0.wrQLenPdf::20                  0                       # What write queue length does an incoming req see (Count)
system.far_mem_ctrl0.wrQLenPdf::21                  0                       # What write queue length does an incoming req see (Count)
system.far_mem_ctrl0.wrQLenPdf::22                  0                       # What write queue length does an incoming req see (Count)
system.far_mem_ctrl0.wrQLenPdf::23                  0                       # What write queue length does an incoming req see (Count)
system.far_mem_ctrl0.wrQLenPdf::24                  0                       # What write queue length does an incoming req see (Count)
system.far_mem_ctrl0.wrQLenPdf::25                  0                       # What write queue length does an incoming req see (Count)
system.far_mem_ctrl0.wrQLenPdf::26                  0                       # What write queue length does an incoming req see (Count)
system.far_mem_ctrl0.wrQLenPdf::27                  0                       # What write queue length does an incoming req see (Count)
system.far_mem_ctrl0.wrQLenPdf::28                  0                       # What write queue length does an incoming req see (Count)
system.far_mem_ctrl0.wrQLenPdf::29                  0                       # What write queue length does an incoming req see (Count)
system.far_mem_ctrl0.wrQLenPdf::30                  0                       # What write queue length does an incoming req see (Count)
system.far_mem_ctrl0.wrQLenPdf::31                  0                       # What write queue length does an incoming req see (Count)
system.far_mem_ctrl0.wrQLenPdf::32                  0                       # What write queue length does an incoming req see (Count)
system.far_mem_ctrl0.wrQLenPdf::33                  0                       # What write queue length does an incoming req see (Count)
system.far_mem_ctrl0.wrQLenPdf::34                  0                       # What write queue length does an incoming req see (Count)
system.far_mem_ctrl0.wrQLenPdf::35                  0                       # What write queue length does an incoming req see (Count)
system.far_mem_ctrl0.wrQLenPdf::36                  0                       # What write queue length does an incoming req see (Count)
system.far_mem_ctrl0.wrQLenPdf::37                  0                       # What write queue length does an incoming req see (Count)
system.far_mem_ctrl0.wrQLenPdf::38                  0                       # What write queue length does an incoming req see (Count)
system.far_mem_ctrl0.wrQLenPdf::39                  0                       # What write queue length does an incoming req see (Count)
system.far_mem_ctrl0.wrQLenPdf::40                  0                       # What write queue length does an incoming req see (Count)
system.far_mem_ctrl0.wrQLenPdf::41                  0                       # What write queue length does an incoming req see (Count)
system.far_mem_ctrl0.wrQLenPdf::42                  0                       # What write queue length does an incoming req see (Count)
system.far_mem_ctrl0.wrQLenPdf::43                  0                       # What write queue length does an incoming req see (Count)
system.far_mem_ctrl0.wrQLenPdf::44                  0                       # What write queue length does an incoming req see (Count)
system.far_mem_ctrl0.wrQLenPdf::45                  0                       # What write queue length does an incoming req see (Count)
system.far_mem_ctrl0.wrQLenPdf::46                  0                       # What write queue length does an incoming req see (Count)
system.far_mem_ctrl0.wrQLenPdf::47                  0                       # What write queue length does an incoming req see (Count)
system.far_mem_ctrl0.wrQLenPdf::48                  0                       # What write queue length does an incoming req see (Count)
system.far_mem_ctrl0.wrQLenPdf::49                  0                       # What write queue length does an incoming req see (Count)
system.far_mem_ctrl0.wrQLenPdf::50                  0                       # What write queue length does an incoming req see (Count)
system.far_mem_ctrl0.wrQLenPdf::51                  0                       # What write queue length does an incoming req see (Count)
system.far_mem_ctrl0.wrQLenPdf::52                  0                       # What write queue length does an incoming req see (Count)
system.far_mem_ctrl0.wrQLenPdf::53                  0                       # What write queue length does an incoming req see (Count)
system.far_mem_ctrl0.wrQLenPdf::54                  0                       # What write queue length does an incoming req see (Count)
system.far_mem_ctrl0.wrQLenPdf::55                  0                       # What write queue length does an incoming req see (Count)
system.far_mem_ctrl0.wrQLenPdf::56                  0                       # What write queue length does an incoming req see (Count)
system.far_mem_ctrl0.wrQLenPdf::57                  0                       # What write queue length does an incoming req see (Count)
system.far_mem_ctrl0.wrQLenPdf::58                  0                       # What write queue length does an incoming req see (Count)
system.far_mem_ctrl0.wrQLenPdf::59                  0                       # What write queue length does an incoming req see (Count)
system.far_mem_ctrl0.wrQLenPdf::60                  0                       # What write queue length does an incoming req see (Count)
system.far_mem_ctrl0.wrQLenPdf::61                  0                       # What write queue length does an incoming req see (Count)
system.far_mem_ctrl0.wrQLenPdf::62                  0                       # What write queue length does an incoming req see (Count)
system.far_mem_ctrl0.wrQLenPdf::63                  0                       # What write queue length does an incoming req see (Count)
system.far_mem_ctrl0.wrQLenPdf::64                  0                       # What write queue length does an incoming req see (Count)
system.far_mem_ctrl0.wrQLenPdf::65                  0                       # What write queue length does an incoming req see (Count)
system.far_mem_ctrl0.wrQLenPdf::66                  0                       # What write queue length does an incoming req see (Count)
system.far_mem_ctrl0.wrQLenPdf::67                  0                       # What write queue length does an incoming req see (Count)
system.far_mem_ctrl0.wrQLenPdf::68                  0                       # What write queue length does an incoming req see (Count)
system.far_mem_ctrl0.wrQLenPdf::69                  0                       # What write queue length does an incoming req see (Count)
system.far_mem_ctrl0.wrQLenPdf::70                  0                       # What write queue length does an incoming req see (Count)
system.far_mem_ctrl0.wrQLenPdf::71                  0                       # What write queue length does an incoming req see (Count)
system.far_mem_ctrl0.wrQLenPdf::72                  0                       # What write queue length does an incoming req see (Count)
system.far_mem_ctrl0.wrQLenPdf::73                  0                       # What write queue length does an incoming req see (Count)
system.far_mem_ctrl0.wrQLenPdf::74                  0                       # What write queue length does an incoming req see (Count)
system.far_mem_ctrl0.wrQLenPdf::75                  0                       # What write queue length does an incoming req see (Count)
system.far_mem_ctrl0.wrQLenPdf::76                  0                       # What write queue length does an incoming req see (Count)
system.far_mem_ctrl0.wrQLenPdf::77                  0                       # What write queue length does an incoming req see (Count)
system.far_mem_ctrl0.wrQLenPdf::78                  0                       # What write queue length does an incoming req see (Count)
system.far_mem_ctrl0.wrQLenPdf::79                  0                       # What write queue length does an incoming req see (Count)
system.far_mem_ctrl0.wrQLenPdf::80                  0                       # What write queue length does an incoming req see (Count)
system.far_mem_ctrl0.wrQLenPdf::81                  0                       # What write queue length does an incoming req see (Count)
system.far_mem_ctrl0.wrQLenPdf::82                  0                       # What write queue length does an incoming req see (Count)
system.far_mem_ctrl0.wrQLenPdf::83                  0                       # What write queue length does an incoming req see (Count)
system.far_mem_ctrl0.wrQLenPdf::84                  0                       # What write queue length does an incoming req see (Count)
system.far_mem_ctrl0.wrQLenPdf::85                  0                       # What write queue length does an incoming req see (Count)
system.far_mem_ctrl0.wrQLenPdf::86                  0                       # What write queue length does an incoming req see (Count)
system.far_mem_ctrl0.wrQLenPdf::87                  0                       # What write queue length does an incoming req see (Count)
system.far_mem_ctrl0.wrQLenPdf::88                  0                       # What write queue length does an incoming req see (Count)
system.far_mem_ctrl0.wrQLenPdf::89                  0                       # What write queue length does an incoming req see (Count)
system.far_mem_ctrl0.wrQLenPdf::90                  0                       # What write queue length does an incoming req see (Count)
system.far_mem_ctrl0.wrQLenPdf::91                  0                       # What write queue length does an incoming req see (Count)
system.far_mem_ctrl0.wrQLenPdf::92                  0                       # What write queue length does an incoming req see (Count)
system.far_mem_ctrl0.wrQLenPdf::93                  0                       # What write queue length does an incoming req see (Count)
system.far_mem_ctrl0.wrQLenPdf::94                  0                       # What write queue length does an incoming req see (Count)
system.far_mem_ctrl0.wrQLenPdf::95                  0                       # What write queue length does an incoming req see (Count)
system.far_mem_ctrl0.wrQLenPdf::96                  0                       # What write queue length does an incoming req see (Count)
system.far_mem_ctrl0.wrQLenPdf::97                  0                       # What write queue length does an incoming req see (Count)
system.far_mem_ctrl0.wrQLenPdf::98                  0                       # What write queue length does an incoming req see (Count)
system.far_mem_ctrl0.wrQLenPdf::99                  0                       # What write queue length does an incoming req see (Count)
system.far_mem_ctrl0.wrQLenPdf::100                 0                       # What write queue length does an incoming req see (Count)
system.far_mem_ctrl0.wrQLenPdf::101                 0                       # What write queue length does an incoming req see (Count)
system.far_mem_ctrl0.wrQLenPdf::102                 0                       # What write queue length does an incoming req see (Count)
system.far_mem_ctrl0.wrQLenPdf::103                 0                       # What write queue length does an incoming req see (Count)
system.far_mem_ctrl0.wrQLenPdf::104                 0                       # What write queue length does an incoming req see (Count)
system.far_mem_ctrl0.wrQLenPdf::105                 0                       # What write queue length does an incoming req see (Count)
system.far_mem_ctrl0.wrQLenPdf::106                 0                       # What write queue length does an incoming req see (Count)
system.far_mem_ctrl0.wrQLenPdf::107                 0                       # What write queue length does an incoming req see (Count)
system.far_mem_ctrl0.wrQLenPdf::108                 0                       # What write queue length does an incoming req see (Count)
system.far_mem_ctrl0.wrQLenPdf::109                 0                       # What write queue length does an incoming req see (Count)
system.far_mem_ctrl0.wrQLenPdf::110                 0                       # What write queue length does an incoming req see (Count)
system.far_mem_ctrl0.wrQLenPdf::111                 0                       # What write queue length does an incoming req see (Count)
system.far_mem_ctrl0.wrQLenPdf::112                 0                       # What write queue length does an incoming req see (Count)
system.far_mem_ctrl0.wrQLenPdf::113                 0                       # What write queue length does an incoming req see (Count)
system.far_mem_ctrl0.wrQLenPdf::114                 0                       # What write queue length does an incoming req see (Count)
system.far_mem_ctrl0.wrQLenPdf::115                 0                       # What write queue length does an incoming req see (Count)
system.far_mem_ctrl0.wrQLenPdf::116                 0                       # What write queue length does an incoming req see (Count)
system.far_mem_ctrl0.wrQLenPdf::117                 0                       # What write queue length does an incoming req see (Count)
system.far_mem_ctrl0.wrQLenPdf::118                 0                       # What write queue length does an incoming req see (Count)
system.far_mem_ctrl0.wrQLenPdf::119                 0                       # What write queue length does an incoming req see (Count)
system.far_mem_ctrl0.wrQLenPdf::120                 0                       # What write queue length does an incoming req see (Count)
system.far_mem_ctrl0.wrQLenPdf::121                 0                       # What write queue length does an incoming req see (Count)
system.far_mem_ctrl0.wrQLenPdf::122                 0                       # What write queue length does an incoming req see (Count)
system.far_mem_ctrl0.wrQLenPdf::123                 0                       # What write queue length does an incoming req see (Count)
system.far_mem_ctrl0.wrQLenPdf::124                 0                       # What write queue length does an incoming req see (Count)
system.far_mem_ctrl0.wrQLenPdf::125                 0                       # What write queue length does an incoming req see (Count)
system.far_mem_ctrl0.wrQLenPdf::126                 0                       # What write queue length does an incoming req see (Count)
system.far_mem_ctrl0.wrQLenPdf::127                 0                       # What write queue length does an incoming req see (Count)
system.far_mem_ctrl0.bytesReadWrQ                   0                       # Total number of bytes read from write queue (Byte)
system.far_mem_ctrl0.bytesReadSys              369152                       # Total read bytes from the system interface side (Byte)
system.far_mem_ctrl0.bytesWrittenSys                0                       # Total written bytes from the system interface side (Byte)
system.far_mem_ctrl0.avgRdBWSys          3691520036.91520071                       # Average system read bandwidth in Byte/s ((Byte/Second))
system.far_mem_ctrl0.avgWrBWSys            0.00000000                       # Average system write bandwidth in Byte/s ((Byte/Second))
system.far_mem_ctrl0.totGap                  99778000                       # Total gap between requests (Tick)
system.far_mem_ctrl0.avgGap                  17298.54                       # Average gap between requests ((Tick/Count))
system.far_mem_ctrl0.requestorReadBytes::writebacks       368640                       # Per-requestor bytes read from memory (Byte)
system.far_mem_ctrl0.requestorReadRate::writebacks 3686400036.864000320435                       # Per-requestor bytes read from memory rate ((Byte/Second))
system.far_mem_ctrl0.requestorReadAccesses::writebacks         5768                       # Per-requestor read serviced memory accesses (Count)
system.far_mem_ctrl0.requestorReadTotalLat::writebacks   1467246660                       # Per-requestor read total memory access latency (Tick)
system.far_mem_ctrl0.requestorReadAvgLat::writebacks    254377.02                       # Per-requestor read average memory access latency ((Tick/Count))
system.far_mem_ctrl0.dram.bytesRead::writebacks       368640                       # Number of bytes read from this memory (Byte)
system.far_mem_ctrl0.dram.bytesRead::total       368640                       # Number of bytes read from this memory (Byte)
system.far_mem_ctrl0.dram.numReads::writebacks         5760                       # Number of read requests responded to by this memory (Count)
system.far_mem_ctrl0.dram.numReads::total         5760                       # Number of read requests responded to by this memory (Count)
system.far_mem_ctrl0.dram.bwRead::writebacks   3686400037                       # Total read bandwidth from this memory ((Byte/Second))
system.far_mem_ctrl0.dram.bwRead::total    3686400037                       # Total read bandwidth from this memory ((Byte/Second))
system.far_mem_ctrl0.dram.bwTotal::writebacks   3686400037                       # Total bandwidth to/from this memory ((Byte/Second))
system.far_mem_ctrl0.dram.bwTotal::total   3686400037                       # Total bandwidth to/from this memory ((Byte/Second))
system.far_mem_ctrl0.dram.readBursts             5760                       # Number of NVM read bursts (Count)
system.far_mem_ctrl0.dram.writeBursts               0                       # Number of NVM write bursts (Count)
system.far_mem_ctrl0.dram.perBankRdBursts::0          375                       # Per bank write bursts (Count)
system.far_mem_ctrl0.dram.perBankRdBursts::1          353                       # Per bank write bursts (Count)
system.far_mem_ctrl0.dram.perBankRdBursts::2          363                       # Per bank write bursts (Count)
system.far_mem_ctrl0.dram.perBankRdBursts::3          356                       # Per bank write bursts (Count)
system.far_mem_ctrl0.dram.perBankRdBursts::4          341                       # Per bank write bursts (Count)
system.far_mem_ctrl0.dram.perBankRdBursts::5          354                       # Per bank write bursts (Count)
system.far_mem_ctrl0.dram.perBankRdBursts::6          357                       # Per bank write bursts (Count)
system.far_mem_ctrl0.dram.perBankRdBursts::7          339                       # Per bank write bursts (Count)
system.far_mem_ctrl0.dram.perBankRdBursts::8          348                       # Per bank write bursts (Count)
system.far_mem_ctrl0.dram.perBankRdBursts::9          375                       # Per bank write bursts (Count)
system.far_mem_ctrl0.dram.perBankRdBursts::10          358                       # Per bank write bursts (Count)
system.far_mem_ctrl0.dram.perBankRdBursts::11          382                       # Per bank write bursts (Count)
system.far_mem_ctrl0.dram.perBankRdBursts::12          363                       # Per bank write bursts (Count)
system.far_mem_ctrl0.dram.perBankRdBursts::13          407                       # Per bank write bursts (Count)
system.far_mem_ctrl0.dram.perBankRdBursts::14          314                       # Per bank write bursts (Count)
system.far_mem_ctrl0.dram.perBankRdBursts::15          375                       # Per bank write bursts (Count)
system.far_mem_ctrl0.dram.perBankWrBursts::0            0                       # Per bank write bursts (Count)
system.far_mem_ctrl0.dram.perBankWrBursts::1            0                       # Per bank write bursts (Count)
system.far_mem_ctrl0.dram.perBankWrBursts::2            0                       # Per bank write bursts (Count)
system.far_mem_ctrl0.dram.perBankWrBursts::3            0                       # Per bank write bursts (Count)
system.far_mem_ctrl0.dram.perBankWrBursts::4            0                       # Per bank write bursts (Count)
system.far_mem_ctrl0.dram.perBankWrBursts::5            0                       # Per bank write bursts (Count)
system.far_mem_ctrl0.dram.perBankWrBursts::6            0                       # Per bank write bursts (Count)
system.far_mem_ctrl0.dram.perBankWrBursts::7            0                       # Per bank write bursts (Count)
system.far_mem_ctrl0.dram.perBankWrBursts::8            0                       # Per bank write bursts (Count)
system.far_mem_ctrl0.dram.perBankWrBursts::9            0                       # Per bank write bursts (Count)
system.far_mem_ctrl0.dram.perBankWrBursts::10            0                       # Per bank write bursts (Count)
system.far_mem_ctrl0.dram.perBankWrBursts::11            0                       # Per bank write bursts (Count)
system.far_mem_ctrl0.dram.perBankWrBursts::12            0                       # Per bank write bursts (Count)
system.far_mem_ctrl0.dram.perBankWrBursts::13            0                       # Per bank write bursts (Count)
system.far_mem_ctrl0.dram.perBankWrBursts::14            0                       # Per bank write bursts (Count)
system.far_mem_ctrl0.dram.perBankWrBursts::15            0                       # Per bank write bursts (Count)
system.far_mem_ctrl0.dram.totQLat          1366492740                       # Total ticks spent queuing (Tick)
system.far_mem_ctrl0.dram.totBusLat          19192320                       # Total ticks spent in databus transfers (Tick)
system.far_mem_ctrl0.dram.totMemAccLat     1467246660                       # Total ticks spent from burst creation until serviced by the NVM (Tick)
system.far_mem_ctrl0.dram.avgQLat           237238.32                       # Average queueing delay per NVM burst ((Tick/Count))
system.far_mem_ctrl0.dram.avgBusLat           3332.00                       # Average bus latency per NVM burst ((Tick/Count))
system.far_mem_ctrl0.dram.avgMemAccLat      254730.32                       # Average memory access latency per NVM burst ((Tick/Count))
system.far_mem_ctrl0.dram.avgRdBW             3686.40                       # Average DRAM read bandwidth in MiBytes/s ((Byte/Second))
system.far_mem_ctrl0.dram.avgWrBW                0.00                       # Average DRAM write bandwidth in MiBytes/s ((Byte/Second))
system.far_mem_ctrl0.dram.peakBW             19207.00                       # Theoretical peak bandwidth in MiByte/s ((Byte/Second))
system.far_mem_ctrl0.dram.busUtil               19.19                       # NVM Data bus utilization in percentage (Ratio)
system.far_mem_ctrl0.dram.busUtilRead           19.19                       # NVM Data bus read utilization in percentage (Ratio)
system.far_mem_ctrl0.dram.busUtilWrite           0.00                       # NVM Data bus write utilization in percentage (Ratio)
system.far_mem_ctrl0.dram.pendingReads::samples         5760                       # Reads issued to NVM for which data has not been transferred (Count)
system.far_mem_ctrl0.dram.pendingReads::mean    13.480208                       # Reads issued to NVM for which data has not been transferred (Count)
system.far_mem_ctrl0.dram.pendingReads::stdev     5.586581                       # Reads issued to NVM for which data has not been transferred (Count)
system.far_mem_ctrl0.dram.pendingReads::0            6      0.10%      0.10% # Reads issued to NVM for which data has not been transferred (Count)
system.far_mem_ctrl0.dram.pendingReads::1           14      0.24%      0.35% # Reads issued to NVM for which data has not been transferred (Count)
system.far_mem_ctrl0.dram.pendingReads::2           20      0.35%      0.69% # Reads issued to NVM for which data has not been transferred (Count)
system.far_mem_ctrl0.dram.pendingReads::3           26      0.45%      1.15% # Reads issued to NVM for which data has not been transferred (Count)
system.far_mem_ctrl0.dram.pendingReads::4           45      0.78%      1.93% # Reads issued to NVM for which data has not been transferred (Count)
system.far_mem_ctrl0.dram.pendingReads::5           82      1.42%      3.35% # Reads issued to NVM for which data has not been transferred (Count)
system.far_mem_ctrl0.dram.pendingReads::6          149      2.59%      5.94% # Reads issued to NVM for which data has not been transferred (Count)
system.far_mem_ctrl0.dram.pendingReads::7          237      4.11%     10.05% # Reads issued to NVM for which data has not been transferred (Count)
system.far_mem_ctrl0.dram.pendingReads::8          288      5.00%     15.05% # Reads issued to NVM for which data has not been transferred (Count)
system.far_mem_ctrl0.dram.pendingReads::9          344      5.97%     21.02% # Reads issued to NVM for which data has not been transferred (Count)
system.far_mem_ctrl0.dram.pendingReads::10          391      6.79%     27.81% # Reads issued to NVM for which data has not been transferred (Count)
system.far_mem_ctrl0.dram.pendingReads::11          437      7.59%     35.40% # Reads issued to NVM for which data has not been transferred (Count)
system.far_mem_ctrl0.dram.pendingReads::12          479      8.32%     43.72% # Reads issued to NVM for which data has not been transferred (Count)
system.far_mem_ctrl0.dram.pendingReads::13          494      8.58%     52.29% # Reads issued to NVM for which data has not been transferred (Count)
system.far_mem_ctrl0.dram.pendingReads::14          527      9.15%     61.44% # Reads issued to NVM for which data has not been transferred (Count)
system.far_mem_ctrl0.dram.pendingReads::15          501      8.70%     70.14% # Reads issued to NVM for which data has not been transferred (Count)
system.far_mem_ctrl0.dram.pendingReads::16          479      8.32%     78.45% # Reads issued to NVM for which data has not been transferred (Count)
system.far_mem_ctrl0.dram.pendingReads::17          388      6.74%     85.19% # Reads issued to NVM for which data has not been transferred (Count)
system.far_mem_ctrl0.dram.pendingReads::18          270      4.69%     89.88% # Reads issued to NVM for which data has not been transferred (Count)
system.far_mem_ctrl0.dram.pendingReads::19          176      3.06%     92.93% # Reads issued to NVM for which data has not been transferred (Count)
system.far_mem_ctrl0.dram.pendingReads::20          115      2.00%     94.93% # Reads issued to NVM for which data has not been transferred (Count)
system.far_mem_ctrl0.dram.pendingReads::21           66      1.15%     96.08% # Reads issued to NVM for which data has not been transferred (Count)
system.far_mem_ctrl0.dram.pendingReads::22           42      0.73%     96.81% # Reads issued to NVM for which data has not been transferred (Count)
system.far_mem_ctrl0.dram.pendingReads::23           25      0.43%     97.24% # Reads issued to NVM for which data has not been transferred (Count)
system.far_mem_ctrl0.dram.pendingReads::24           15      0.26%     97.50% # Reads issued to NVM for which data has not been transferred (Count)
system.far_mem_ctrl0.dram.pendingReads::25           10      0.17%     97.67% # Reads issued to NVM for which data has not been transferred (Count)
system.far_mem_ctrl0.dram.pendingReads::26           10      0.17%     97.85% # Reads issued to NVM for which data has not been transferred (Count)
system.far_mem_ctrl0.dram.pendingReads::27            7      0.12%     97.97% # Reads issued to NVM for which data has not been transferred (Count)
system.far_mem_ctrl0.dram.pendingReads::28           14      0.24%     98.21% # Reads issued to NVM for which data has not been transferred (Count)
system.far_mem_ctrl0.dram.pendingReads::29            9      0.16%     98.37% # Reads issued to NVM for which data has not been transferred (Count)
system.far_mem_ctrl0.dram.pendingReads::30            3      0.05%     98.42% # Reads issued to NVM for which data has not been transferred (Count)
system.far_mem_ctrl0.dram.pendingReads::31            5      0.09%     98.51% # Reads issued to NVM for which data has not been transferred (Count)
system.far_mem_ctrl0.dram.pendingReads::32            3      0.05%     98.56% # Reads issued to NVM for which data has not been transferred (Count)
system.far_mem_ctrl0.dram.pendingReads::33            4      0.07%     98.63% # Reads issued to NVM for which data has not been transferred (Count)
system.far_mem_ctrl0.dram.pendingReads::34            2      0.03%     98.66% # Reads issued to NVM for which data has not been transferred (Count)
system.far_mem_ctrl0.dram.pendingReads::35            3      0.05%     98.72% # Reads issued to NVM for which data has not been transferred (Count)
system.far_mem_ctrl0.dram.pendingReads::36            6      0.10%     98.82% # Reads issued to NVM for which data has not been transferred (Count)
system.far_mem_ctrl0.dram.pendingReads::37            8      0.14%     98.96% # Reads issued to NVM for which data has not been transferred (Count)
system.far_mem_ctrl0.dram.pendingReads::38            7      0.12%     99.08% # Reads issued to NVM for which data has not been transferred (Count)
system.far_mem_ctrl0.dram.pendingReads::39            7      0.12%     99.20% # Reads issued to NVM for which data has not been transferred (Count)
system.far_mem_ctrl0.dram.pendingReads::40            2      0.03%     99.24% # Reads issued to NVM for which data has not been transferred (Count)
system.far_mem_ctrl0.dram.pendingReads::41            2      0.03%     99.27% # Reads issued to NVM for which data has not been transferred (Count)
system.far_mem_ctrl0.dram.pendingReads::42            3      0.05%     99.32% # Reads issued to NVM for which data has not been transferred (Count)
system.far_mem_ctrl0.dram.pendingReads::43            3      0.05%     99.38% # Reads issued to NVM for which data has not been transferred (Count)
system.far_mem_ctrl0.dram.pendingReads::44            8      0.14%     99.51% # Reads issued to NVM for which data has not been transferred (Count)
system.far_mem_ctrl0.dram.pendingReads::45            4      0.07%     99.58% # Reads issued to NVM for which data has not been transferred (Count)
system.far_mem_ctrl0.dram.pendingReads::46            1      0.02%     99.60% # Reads issued to NVM for which data has not been transferred (Count)
system.far_mem_ctrl0.dram.pendingReads::47            1      0.02%     99.62% # Reads issued to NVM for which data has not been transferred (Count)
system.far_mem_ctrl0.dram.pendingReads::48            6      0.10%     99.72% # Reads issued to NVM for which data has not been transferred (Count)
system.far_mem_ctrl0.dram.pendingReads::49            6      0.10%     99.83% # Reads issued to NVM for which data has not been transferred (Count)
system.far_mem_ctrl0.dram.pendingReads::50            5      0.09%     99.91% # Reads issued to NVM for which data has not been transferred (Count)
system.far_mem_ctrl0.dram.pendingReads::51            2      0.03%     99.95% # Reads issued to NVM for which data has not been transferred (Count)
system.far_mem_ctrl0.dram.pendingReads::52            2      0.03%     99.98% # Reads issued to NVM for which data has not been transferred (Count)
system.far_mem_ctrl0.dram.pendingReads::53            1      0.02%    100.00% # Reads issued to NVM for which data has not been transferred (Count)
system.far_mem_ctrl0.dram.pendingReads::total         5760                       # Reads issued to NVM for which data has not been transferred (Count)
system.far_mem_ctrl0.dram.bytesPerBank::samples         5768                       # Bytes read within a bank before loading new bank (Byte)
system.far_mem_ctrl0.dram.bytesPerBank::mean           64                       # Bytes read within a bank before loading new bank (Byte)
system.far_mem_ctrl0.dram.bytesPerBank::gmean    64.000000                       # Bytes read within a bank before loading new bank (Byte)
system.far_mem_ctrl0.dram.bytesPerBank::64         5768    100.00%    100.00% # Bytes read within a bank before loading new bank (Byte)
system.far_mem_ctrl0.dram.bytesPerBank::total         5768                       # Bytes read within a bank before loading new bank (Byte)
system.far_mem_ctrl0.dram.power_state.pwrStateResidencyTicks::UNDEFINED     99999999                       # Cumulative time (in ticks) in various power states (Tick)
system.far_mem_ctrl0.power_state.pwrStateResidencyTicks::UNDEFINED     99999999                       # Cumulative time (in ticks) in various power states (Tick)
system.far_mem_ctrl1.avgPriority_writebacks::samples      5735.00                       # Average QoS priority value for accepted requests (Count)
system.far_mem_ctrl1.priorityMinLatency  0.000000317492                       # per QoS priority minimum request to response latency (Second)
system.far_mem_ctrl1.priorityMaxLatency  0.000002621492                       # per QoS priority maximum request to response latency (Second)
system.far_mem_ctrl1.numReadWriteTurnArounds            0                       # Number of turnarounds from READ to WRITE (Count)
system.far_mem_ctrl1.numWriteReadTurnArounds            0                       # Number of turnarounds from WRITE to READ (Count)
system.far_mem_ctrl1.numStayReadState           17111                       # Number of times bus staying in READ state (Count)
system.far_mem_ctrl1.numStayWriteState              0                       # Number of times bus staying in WRITE state (Count)
system.far_mem_ctrl1.readReqs                    5735                       # Number of read requests accepted (Count)
system.far_mem_ctrl1.writeReqs                      0                       # Number of write requests accepted (Count)
system.far_mem_ctrl1.readBursts                  5735                       # Number of controller read bursts, including those serviced by the write queue (Count)
system.far_mem_ctrl1.writeBursts                    0                       # Number of controller write bursts, including those merged in the write queue (Count)
system.far_mem_ctrl1.servicedByWrQ                  0                       # Number of controller read bursts serviced by the write queue (Count)
system.far_mem_ctrl1.mergedWrBursts                 0                       # Number of controller write bursts merged with an existing one (Count)
system.far_mem_ctrl1.neitherReadNorWriteReqs            0                       # Number of requests that are neither read nor write (Count)
system.far_mem_ctrl1.avgRdQLen                  17.94                       # Average read queue length when enqueuing ((Count/Tick))
system.far_mem_ctrl1.avgWrQLen                   0.00                       # Average write queue length when enqueuing ((Count/Tick))
system.far_mem_ctrl1.numRdRetry                     0                       # Number of times read queue was full causing retry (Count)
system.far_mem_ctrl1.numWrRetry                     0                       # Number of times write queue was full causing retry (Count)
system.far_mem_ctrl1.readPktSize::0                 0                       # Read request sizes (log2) (Count)
system.far_mem_ctrl1.readPktSize::1                 0                       # Read request sizes (log2) (Count)
system.far_mem_ctrl1.readPktSize::2                 0                       # Read request sizes (log2) (Count)
system.far_mem_ctrl1.readPktSize::3                 0                       # Read request sizes (log2) (Count)
system.far_mem_ctrl1.readPktSize::4                 0                       # Read request sizes (log2) (Count)
system.far_mem_ctrl1.readPktSize::5                 0                       # Read request sizes (log2) (Count)
system.far_mem_ctrl1.readPktSize::6              5735                       # Read request sizes (log2) (Count)
system.far_mem_ctrl1.writePktSize::0                0                       # Write request sizes (log2) (Count)
system.far_mem_ctrl1.writePktSize::1                0                       # Write request sizes (log2) (Count)
system.far_mem_ctrl1.writePktSize::2                0                       # Write request sizes (log2) (Count)
system.far_mem_ctrl1.writePktSize::3                0                       # Write request sizes (log2) (Count)
system.far_mem_ctrl1.writePktSize::4                0                       # Write request sizes (log2) (Count)
system.far_mem_ctrl1.writePktSize::5                0                       # Write request sizes (log2) (Count)
system.far_mem_ctrl1.writePktSize::6                0                       # Write request sizes (log2) (Count)
system.far_mem_ctrl1.rdQLenPdf::0                   4                       # What read queue length does an incoming req see (Count)
system.far_mem_ctrl1.rdQLenPdf::1                  12                       # What read queue length does an incoming req see (Count)
system.far_mem_ctrl1.rdQLenPdf::2                  18                       # What read queue length does an incoming req see (Count)
system.far_mem_ctrl1.rdQLenPdf::3                  24                       # What read queue length does an incoming req see (Count)
system.far_mem_ctrl1.rdQLenPdf::4                  45                       # What read queue length does an incoming req see (Count)
system.far_mem_ctrl1.rdQLenPdf::5                  54                       # What read queue length does an incoming req see (Count)
system.far_mem_ctrl1.rdQLenPdf::6                  89                       # What read queue length does an incoming req see (Count)
system.far_mem_ctrl1.rdQLenPdf::7                 159                       # What read queue length does an incoming req see (Count)
system.far_mem_ctrl1.rdQLenPdf::8                 239                       # What read queue length does an incoming req see (Count)
system.far_mem_ctrl1.rdQLenPdf::9                 305                       # What read queue length does an incoming req see (Count)
system.far_mem_ctrl1.rdQLenPdf::10                379                       # What read queue length does an incoming req see (Count)
system.far_mem_ctrl1.rdQLenPdf::11                388                       # What read queue length does an incoming req see (Count)
system.far_mem_ctrl1.rdQLenPdf::12                417                       # What read queue length does an incoming req see (Count)
system.far_mem_ctrl1.rdQLenPdf::13                443                       # What read queue length does an incoming req see (Count)
system.far_mem_ctrl1.rdQLenPdf::14                505                       # What read queue length does an incoming req see (Count)
system.far_mem_ctrl1.rdQLenPdf::15                541                       # What read queue length does an incoming req see (Count)
system.far_mem_ctrl1.rdQLenPdf::16                522                       # What read queue length does an incoming req see (Count)
system.far_mem_ctrl1.rdQLenPdf::17                467                       # What read queue length does an incoming req see (Count)
system.far_mem_ctrl1.rdQLenPdf::18                374                       # What read queue length does an incoming req see (Count)
system.far_mem_ctrl1.rdQLenPdf::19                256                       # What read queue length does an incoming req see (Count)
system.far_mem_ctrl1.rdQLenPdf::20                163                       # What read queue length does an incoming req see (Count)
system.far_mem_ctrl1.rdQLenPdf::21                 87                       # What read queue length does an incoming req see (Count)
system.far_mem_ctrl1.rdQLenPdf::22                 45                       # What read queue length does an incoming req see (Count)
system.far_mem_ctrl1.rdQLenPdf::23                 27                       # What read queue length does an incoming req see (Count)
system.far_mem_ctrl1.rdQLenPdf::24                 14                       # What read queue length does an incoming req see (Count)
system.far_mem_ctrl1.rdQLenPdf::25                 11                       # What read queue length does an incoming req see (Count)
system.far_mem_ctrl1.rdQLenPdf::26                 10                       # What read queue length does an incoming req see (Count)
system.far_mem_ctrl1.rdQLenPdf::27                  7                       # What read queue length does an incoming req see (Count)
system.far_mem_ctrl1.rdQLenPdf::28                  6                       # What read queue length does an incoming req see (Count)
system.far_mem_ctrl1.rdQLenPdf::29                  9                       # What read queue length does an incoming req see (Count)
system.far_mem_ctrl1.rdQLenPdf::30                 10                       # What read queue length does an incoming req see (Count)
system.far_mem_ctrl1.rdQLenPdf::31                  7                       # What read queue length does an incoming req see (Count)
system.far_mem_ctrl1.rdQLenPdf::32                  5                       # What read queue length does an incoming req see (Count)
system.far_mem_ctrl1.rdQLenPdf::33                  3                       # What read queue length does an incoming req see (Count)
system.far_mem_ctrl1.rdQLenPdf::34                  6                       # What read queue length does an incoming req see (Count)
system.far_mem_ctrl1.rdQLenPdf::35                  5                       # What read queue length does an incoming req see (Count)
system.far_mem_ctrl1.rdQLenPdf::36                  9                       # What read queue length does an incoming req see (Count)
system.far_mem_ctrl1.rdQLenPdf::37                  9                       # What read queue length does an incoming req see (Count)
system.far_mem_ctrl1.rdQLenPdf::38                  7                       # What read queue length does an incoming req see (Count)
system.far_mem_ctrl1.rdQLenPdf::39                  3                       # What read queue length does an incoming req see (Count)
system.far_mem_ctrl1.rdQLenPdf::40                  4                       # What read queue length does an incoming req see (Count)
system.far_mem_ctrl1.rdQLenPdf::41                  4                       # What read queue length does an incoming req see (Count)
system.far_mem_ctrl1.rdQLenPdf::42                  6                       # What read queue length does an incoming req see (Count)
system.far_mem_ctrl1.rdQLenPdf::43                  6                       # What read queue length does an incoming req see (Count)
system.far_mem_ctrl1.rdQLenPdf::44                  5                       # What read queue length does an incoming req see (Count)
system.far_mem_ctrl1.rdQLenPdf::45                  4                       # What read queue length does an incoming req see (Count)
system.far_mem_ctrl1.rdQLenPdf::46                  2                       # What read queue length does an incoming req see (Count)
system.far_mem_ctrl1.rdQLenPdf::47                  2                       # What read queue length does an incoming req see (Count)
system.far_mem_ctrl1.rdQLenPdf::48                  2                       # What read queue length does an incoming req see (Count)
system.far_mem_ctrl1.rdQLenPdf::49                  2                       # What read queue length does an incoming req see (Count)
system.far_mem_ctrl1.rdQLenPdf::50                  8                       # What read queue length does an incoming req see (Count)
system.far_mem_ctrl1.rdQLenPdf::51                  3                       # What read queue length does an incoming req see (Count)
system.far_mem_ctrl1.rdQLenPdf::52                  3                       # What read queue length does an incoming req see (Count)
system.far_mem_ctrl1.rdQLenPdf::53                  0                       # What read queue length does an incoming req see (Count)
system.far_mem_ctrl1.rdQLenPdf::54                  0                       # What read queue length does an incoming req see (Count)
system.far_mem_ctrl1.rdQLenPdf::55                  0                       # What read queue length does an incoming req see (Count)
system.far_mem_ctrl1.rdQLenPdf::56                  0                       # What read queue length does an incoming req see (Count)
system.far_mem_ctrl1.rdQLenPdf::57                  0                       # What read queue length does an incoming req see (Count)
system.far_mem_ctrl1.rdQLenPdf::58                  0                       # What read queue length does an incoming req see (Count)
system.far_mem_ctrl1.rdQLenPdf::59                  0                       # What read queue length does an incoming req see (Count)
system.far_mem_ctrl1.rdQLenPdf::60                  0                       # What read queue length does an incoming req see (Count)
system.far_mem_ctrl1.rdQLenPdf::61                  0                       # What read queue length does an incoming req see (Count)
system.far_mem_ctrl1.rdQLenPdf::62                  0                       # What read queue length does an incoming req see (Count)
system.far_mem_ctrl1.rdQLenPdf::63                  0                       # What read queue length does an incoming req see (Count)
system.far_mem_ctrl1.rdQLenPdf::64                  0                       # What read queue length does an incoming req see (Count)
system.far_mem_ctrl1.rdQLenPdf::65                  0                       # What read queue length does an incoming req see (Count)
system.far_mem_ctrl1.rdQLenPdf::66                  0                       # What read queue length does an incoming req see (Count)
system.far_mem_ctrl1.rdQLenPdf::67                  0                       # What read queue length does an incoming req see (Count)
system.far_mem_ctrl1.rdQLenPdf::68                  0                       # What read queue length does an incoming req see (Count)
system.far_mem_ctrl1.rdQLenPdf::69                  0                       # What read queue length does an incoming req see (Count)
system.far_mem_ctrl1.rdQLenPdf::70                  0                       # What read queue length does an incoming req see (Count)
system.far_mem_ctrl1.rdQLenPdf::71                  0                       # What read queue length does an incoming req see (Count)
system.far_mem_ctrl1.rdQLenPdf::72                  0                       # What read queue length does an incoming req see (Count)
system.far_mem_ctrl1.rdQLenPdf::73                  0                       # What read queue length does an incoming req see (Count)
system.far_mem_ctrl1.rdQLenPdf::74                  0                       # What read queue length does an incoming req see (Count)
system.far_mem_ctrl1.rdQLenPdf::75                  0                       # What read queue length does an incoming req see (Count)
system.far_mem_ctrl1.rdQLenPdf::76                  0                       # What read queue length does an incoming req see (Count)
system.far_mem_ctrl1.rdQLenPdf::77                  0                       # What read queue length does an incoming req see (Count)
system.far_mem_ctrl1.rdQLenPdf::78                  0                       # What read queue length does an incoming req see (Count)
system.far_mem_ctrl1.rdQLenPdf::79                  0                       # What read queue length does an incoming req see (Count)
system.far_mem_ctrl1.rdQLenPdf::80                  0                       # What read queue length does an incoming req see (Count)
system.far_mem_ctrl1.rdQLenPdf::81                  0                       # What read queue length does an incoming req see (Count)
system.far_mem_ctrl1.rdQLenPdf::82                  0                       # What read queue length does an incoming req see (Count)
system.far_mem_ctrl1.rdQLenPdf::83                  0                       # What read queue length does an incoming req see (Count)
system.far_mem_ctrl1.rdQLenPdf::84                  0                       # What read queue length does an incoming req see (Count)
system.far_mem_ctrl1.rdQLenPdf::85                  0                       # What read queue length does an incoming req see (Count)
system.far_mem_ctrl1.rdQLenPdf::86                  0                       # What read queue length does an incoming req see (Count)
system.far_mem_ctrl1.rdQLenPdf::87                  0                       # What read queue length does an incoming req see (Count)
system.far_mem_ctrl1.rdQLenPdf::88                  0                       # What read queue length does an incoming req see (Count)
system.far_mem_ctrl1.rdQLenPdf::89                  0                       # What read queue length does an incoming req see (Count)
system.far_mem_ctrl1.rdQLenPdf::90                  0                       # What read queue length does an incoming req see (Count)
system.far_mem_ctrl1.rdQLenPdf::91                  0                       # What read queue length does an incoming req see (Count)
system.far_mem_ctrl1.rdQLenPdf::92                  0                       # What read queue length does an incoming req see (Count)
system.far_mem_ctrl1.rdQLenPdf::93                  0                       # What read queue length does an incoming req see (Count)
system.far_mem_ctrl1.rdQLenPdf::94                  0                       # What read queue length does an incoming req see (Count)
system.far_mem_ctrl1.rdQLenPdf::95                  0                       # What read queue length does an incoming req see (Count)
system.far_mem_ctrl1.rdQLenPdf::96                  0                       # What read queue length does an incoming req see (Count)
system.far_mem_ctrl1.rdQLenPdf::97                  0                       # What read queue length does an incoming req see (Count)
system.far_mem_ctrl1.rdQLenPdf::98                  0                       # What read queue length does an incoming req see (Count)
system.far_mem_ctrl1.rdQLenPdf::99                  0                       # What read queue length does an incoming req see (Count)
system.far_mem_ctrl1.rdQLenPdf::100                 0                       # What read queue length does an incoming req see (Count)
system.far_mem_ctrl1.rdQLenPdf::101                 0                       # What read queue length does an incoming req see (Count)
system.far_mem_ctrl1.rdQLenPdf::102                 0                       # What read queue length does an incoming req see (Count)
system.far_mem_ctrl1.rdQLenPdf::103                 0                       # What read queue length does an incoming req see (Count)
system.far_mem_ctrl1.rdQLenPdf::104                 0                       # What read queue length does an incoming req see (Count)
system.far_mem_ctrl1.rdQLenPdf::105                 0                       # What read queue length does an incoming req see (Count)
system.far_mem_ctrl1.rdQLenPdf::106                 0                       # What read queue length does an incoming req see (Count)
system.far_mem_ctrl1.rdQLenPdf::107                 0                       # What read queue length does an incoming req see (Count)
system.far_mem_ctrl1.rdQLenPdf::108                 0                       # What read queue length does an incoming req see (Count)
system.far_mem_ctrl1.rdQLenPdf::109                 0                       # What read queue length does an incoming req see (Count)
system.far_mem_ctrl1.rdQLenPdf::110                 0                       # What read queue length does an incoming req see (Count)
system.far_mem_ctrl1.rdQLenPdf::111                 0                       # What read queue length does an incoming req see (Count)
system.far_mem_ctrl1.rdQLenPdf::112                 0                       # What read queue length does an incoming req see (Count)
system.far_mem_ctrl1.rdQLenPdf::113                 0                       # What read queue length does an incoming req see (Count)
system.far_mem_ctrl1.rdQLenPdf::114                 0                       # What read queue length does an incoming req see (Count)
system.far_mem_ctrl1.rdQLenPdf::115                 0                       # What read queue length does an incoming req see (Count)
system.far_mem_ctrl1.rdQLenPdf::116                 0                       # What read queue length does an incoming req see (Count)
system.far_mem_ctrl1.rdQLenPdf::117                 0                       # What read queue length does an incoming req see (Count)
system.far_mem_ctrl1.rdQLenPdf::118                 0                       # What read queue length does an incoming req see (Count)
system.far_mem_ctrl1.rdQLenPdf::119                 0                       # What read queue length does an incoming req see (Count)
system.far_mem_ctrl1.rdQLenPdf::120                 0                       # What read queue length does an incoming req see (Count)
system.far_mem_ctrl1.rdQLenPdf::121                 0                       # What read queue length does an incoming req see (Count)
system.far_mem_ctrl1.rdQLenPdf::122                 0                       # What read queue length does an incoming req see (Count)
system.far_mem_ctrl1.rdQLenPdf::123                 0                       # What read queue length does an incoming req see (Count)
system.far_mem_ctrl1.rdQLenPdf::124                 0                       # What read queue length does an incoming req see (Count)
system.far_mem_ctrl1.rdQLenPdf::125                 0                       # What read queue length does an incoming req see (Count)
system.far_mem_ctrl1.rdQLenPdf::126                 0                       # What read queue length does an incoming req see (Count)
system.far_mem_ctrl1.rdQLenPdf::127                 0                       # What read queue length does an incoming req see (Count)
system.far_mem_ctrl1.wrQLenPdf::0                   0                       # What write queue length does an incoming req see (Count)
system.far_mem_ctrl1.wrQLenPdf::1                   0                       # What write queue length does an incoming req see (Count)
system.far_mem_ctrl1.wrQLenPdf::2                   0                       # What write queue length does an incoming req see (Count)
system.far_mem_ctrl1.wrQLenPdf::3                   0                       # What write queue length does an incoming req see (Count)
system.far_mem_ctrl1.wrQLenPdf::4                   0                       # What write queue length does an incoming req see (Count)
system.far_mem_ctrl1.wrQLenPdf::5                   0                       # What write queue length does an incoming req see (Count)
system.far_mem_ctrl1.wrQLenPdf::6                   0                       # What write queue length does an incoming req see (Count)
system.far_mem_ctrl1.wrQLenPdf::7                   0                       # What write queue length does an incoming req see (Count)
system.far_mem_ctrl1.wrQLenPdf::8                   0                       # What write queue length does an incoming req see (Count)
system.far_mem_ctrl1.wrQLenPdf::9                   0                       # What write queue length does an incoming req see (Count)
[...]
system.membus.pktSize_system.generators08.port::system.mem_ctrl1.port        11520                       # Cumulative packet size per connected requestor and responder (Byte)
system.membus.pktSize_system.generators08.port::total        22976                       # Cumulative packet size per connected requestor and responder (Byte)
system.membus.pktSize_system.generators09.port::system.mem_ctrl0.port        12480                       # Cumulative packet size per connected requestor and responder (Byte)
system.membus.pktSize_system.generators09.port::system.mem_ctrl1.port        11264                       # Cumulative packet size per connected requestor and responder (Byte)
system.membus.pktSize_system.generators09.port::total        23744                       # Cumulative packet size per connected requestor and responder (Byte)
system.membus.pktSize_system.generators10.port::system.mem_ctrl0.port        12352                       # Cumulative packet size per connected requestor and responder (Byte)
system.membus.pktSize_system.generators10.port::system.mem_ctrl1.port        11520                       # Cumulative packet size per connected requestor and responder (Byte)
system.membus.pktSize_system.generators10.port::total        23872                       # Cumulative packet size per connected requestor and responder (Byte)
system.membus.pktSize_system.generators11.port::system.mem_ctrl0.port         9920                       # Cumulative packet size per connected requestor and responder (Byte)
system.membus.pktSize_system.generators11.port::system.mem_ctrl1.port        11456                       # Cumulative packet size per connected requestor and responder (Byte)
system.membus.pktSize_system.generators11.port::total        21376                       # Cumulative packet size per connected requestor and responder (Byte)
system.membus.pktSize_system.generators12.port::system.mem_ctrl0.port        12800                       # Cumulative packet size per connected requestor and responder (Byte)
system.membus.pktSize_system.generators12.port::system.mem_ctrl1.port        11200                       # Cumulative packet size per connected requestor and responder (Byte)
system.membus.pktSize_system.generators12.port::total        24000                       # Cumulative packet size per connected requestor and responder (Byte)
system.membus.pktSize_system.generators13.port::system.mem_ctrl0.port        11648                       # Cumulative packet size per connected requestor and responder (Byte)
system.membus.pktSize_system.generators13.port::system.mem_ctrl1.port        11200                       # Cumulative packet size per connected requestor and responder (Byte)
system.membus.pktSize_system.generators13.port::total        22848                       # Cumulative packet size per connected requestor and responder (Byte)
system.membus.pktSize_system.generators14.port::system.mem_ctrl0.port        10752                       # Cumulative packet size per connected requestor and responder (Byte)
system.membus.pktSize_system.generators14.port::system.mem_ctrl1.port        11328                       # Cumulative packet size per connected requestor and responder (Byte)
system.membus.pktSize_system.generators14.port::total        22080                       # Cumulative packet size per connected requestor and responder (Byte)
system.membus.pktSize_system.generators15.port::system.mem_ctrl0.port        11904                       # Cumulative packet size per connected requestor and responder (Byte)
system.membus.pktSize_system.generators15.port::system.mem_ctrl1.port        11136                       # Cumulative packet size per connected requestor and responder (Byte)
system.membus.pktSize_system.generators15.port::total        23040                       # Cumulative packet size per connected requestor and responder (Byte)
system.membus.pktSize_system.generators16.port::system.mem_ctrl0.port        11264                       # Cumulative packet size per connected requestor and responder (Byte)
system.membus.pktSize_system.generators16.port::system.mem_ctrl1.port        11328                       # Cumulative packet size per connected requestor and responder (Byte)
system.membus.pktSize_system.generators16.port::total        22592                       # Cumulative packet size per connected requestor and responder (Byte)
system.membus.pktSize_system.generators17.port::system.mem_ctrl0.port        11392                       # Cumulative packet size per connected requestor and responder (Byte)
system.membus.pktSize_system.generators17.port::system.mem_ctrl1.port        11648                       # Cumulative packet size per connected requestor and responder (Byte)
system.membus.pktSize_system.generators17.port::total        23040                       # Cumulative packet size per connected requestor and responder (Byte)
system.membus.pktSize_system.generators18.port::system.mem_ctrl0.port        12544                       # Cumulative packet size per connected requestor and responder (Byte)
system.membus.pktSize_system.generators18.port::system.mem_ctrl1.port        11264                       # Cumulative packet size per connected requestor and responder (Byte)
system.membus.pktSize_system.generators18.port::total        23808                       # Cumulative packet size per connected requestor and responder (Byte)
system.membus.pktSize_system.generators19.port::system.mem_ctrl0.port        12416                       # Cumulative packet size per connected requestor and responder (Byte)
system.membus.pktSize_system.generators19.port::system.mem_ctrl1.port        11648                       # Cumulative packet size per connected requestor and responder (Byte)
system.membus.pktSize_system.generators19.port::total        24064                       # Cumulative packet size per connected requestor and responder (Byte)
system.membus.pktSize_system.generators20.port::system.mem_ctrl0.port        11072                       # Cumulative packet size per connected requestor and responder (Byte)
system.membus.pktSize_system.generators20.port::system.mem_ctrl1.port        11200                       # Cumulative packet size per connected requestor and responder (Byte)
system.membus.pktSize_system.generators20.port::total        22272                       # Cumulative packet size per connected requestor and responder (Byte)
system.membus.pktSize_system.generators21.port::system.mem_ctrl0.port        10752                       # Cumulative packet size per connected requestor and responder (Byte)
system.membus.pktSize_system.generators21.port::system.mem_ctrl1.port        11456                       # Cumulative packet size per connected requestor and responder (Byte)
system.membus.pktSize_system.generators21.port::total        22208                       # Cumulative packet size per connected requestor and responder (Byte)
system.membus.pktSize_system.generators22.port::system.mem_ctrl0.port        12032                       # Cumulative packet size per connected requestor and responder (Byte)
system.membus.pktSize_system.generators22.port::system.mem_ctrl1.port        11584                       # Cumulative packet size per connected requestor and responder (Byte)
system.membus.pktSize_system.generators22.port::total        23616                       # Cumulative packet size per connected requestor and responder (Byte)
system.membus.pktSize_system.generators23.port::system.mem_ctrl0.port        12480                       # Cumulative packet size per connected requestor and responder (Byte)
system.membus.pktSize_system.generators23.port::system.mem_ctrl1.port        11264                       # Cumulative packet size per connected requestor and responder (Byte)
system.membus.pktSize_system.generators23.port::total        23744                       # Cumulative packet size per connected requestor and responder (Byte)
system.membus.pktSize_system.generators24.port::system.mem_ctrl0.port        11136                       # Cumulative packet size per connected requestor and responder (Byte)
system.membus.pktSize_system.generators24.port::system.mem_ctrl1.port        11456                       # Cumulative packet size per connected requestor and responder (Byte)
system.membus.pktSize_system.generators24.port::total        22592                       # Cumulative packet size per connected requestor and responder (Byte)
system.membus.pktSize_system.generators25.port::system.mem_ctrl0.port        10432                       # Cumulative packet size per connected requestor and responder (Byte)
system.membus.pktSize_system.generators25.port::system.mem_ctrl1.port        11520                       # Cumulative packet size per connected requestor and responder (Byte)
system.membus.pktSize_system.generators25.port::total        21952                       # Cumulative packet size per connected requestor and responder (Byte)
system.membus.pktSize_system.generators26.port::system.mem_ctrl0.port        12032                       # Cumulative packet size per connected requestor and responder (Byte)
system.membus.pktSize_system.generators26.port::system.mem_ctrl1.port        11392                       # Cumulative packet size per connected requestor and responder (Byte)
system.membus.pktSize_system.generators26.port::total        23424                       # Cumulative packet size per connected requestor and responder (Byte)
system.membus.pktSize_system.generators27.port::system.mem_ctrl0.port        12800                       # Cumulative packet size per connected requestor and responder (Byte)
system.membus.pktSize_system.generators27.port::system.mem_ctrl1.port        11776                       # Cumulative packet size per connected requestor and responder (Byte)
system.membus.pktSize_system.generators27.port::total        24576                       # Cumulative packet size per connected requestor and responder (Byte)
system.membus.pktSize_system.generators28.port::system.mem_ctrl0.port        10176                       # Cumulative packet size per connected requestor and responder (Byte)
system.membus.pktSize_system.generators28.port::system.mem_ctrl1.port        11776                       # Cumulative packet size per connected requestor and responder (Byte)
system.membus.pktSize_system.generators28.port::total        21952                       # Cumulative packet size per connected requestor and responder (Byte)
system.membus.pktSize_system.generators29.port::system.mem_ctrl0.port        13760                       # Cumulative packet size per connected requestor and responder (Byte)
system.membus.pktSize_system.generators29.port::system.mem_ctrl1.port        11520                       # Cumulative packet size per connected requestor and responder (Byte)
system.membus.pktSize_system.generators29.port::total        25280                       # Cumulative packet size per connected requestor and responder (Byte)
system.membus.pktSize_system.generators30.port::system.mem_ctrl0.port        10944                       # Cumulative packet size per connected requestor and responder (Byte)
system.membus.pktSize_system.generators30.port::system.mem_ctrl1.port        11520                       # Cumulative packet size per connected requestor and responder (Byte)
system.membus.pktSize_system.generators30.port::total        22464                       # Cumulative packet size per connected requestor and responder (Byte)
system.membus.pktSize_system.generators31.port::system.mem_ctrl0.port         9920                       # Cumulative packet size per connected requestor and responder (Byte)
system.membus.pktSize_system.generators31.port::system.mem_ctrl1.port        11584                       # Cumulative packet size per connected requestor and responder (Byte)
system.membus.pktSize_system.generators31.port::total        21504                       # Cumulative packet size per connected requestor and responder (Byte)
system.membus.pktSize::total                   734144                       # Cumulative packet size per connected requestor and responder (Byte)
system.membus.power_state.pwrStateResidencyTicks::UNDEFINED     99999999                       # Cumulative time (in ticks) in various power states (Tick)
system.membus.reqLayer0.occupancy             1928762                       # Layer occupancy (ticks) (Tick)
system.membus.reqLayer0.utilization               0.0                       # Layer utilization (Ratio)
system.membus.reqLayer1.occupancy             2633285                       # Layer occupancy (ticks) (Tick)
system.membus.reqLayer1.utilization               0.0                       # Layer utilization (Ratio)
system.membus.respLayer0.occupancy             177944                       # Layer occupancy (ticks) (Tick)
system.membus.respLayer0.utilization              0.0                       # Layer utilization (Ratio)
system.membus.respLayer1.occupancy             169769                       # Layer occupancy (ticks) (Tick)
system.membus.respLayer1.utilization              0.0                       # Layer utilization (Ratio)
system.membus.respLayer10.occupancy            181979                       # Layer occupancy (ticks) (Tick)
system.membus.respLayer10.utilization             0.0                       # Layer utilization (Ratio)
system.membus.respLayer11.occupancy            162029                       # Layer occupancy (ticks) (Tick)
system.membus.respLayer11.utilization             0.0                       # Layer utilization (Ratio)
system.membus.respLayer12.occupancy            181989                       # Layer occupancy (ticks) (Tick)
system.membus.respLayer12.utilization             0.0                       # Layer utilization (Ratio)
system.membus.respLayer13.occupancy            172364                       # Layer occupancy (ticks) (Tick)
system.membus.respLayer13.utilization             0.0                       # Layer utilization (Ratio)
system.membus.respLayer14.occupancy            167088                       # Layer occupancy (ticks) (Tick)
system.membus.respLayer14.utilization             0.0                       # Layer utilization (Ratio)
system.membus.respLayer15.occupancy            172732                       # Layer occupancy (ticks) (Tick)
system.membus.respLayer15.utilization             0.0                       # Layer utilization (Ratio)
system.membus.respLayer16.occupancy            168468                       # Layer occupancy (ticks) (Tick)
system.membus.respLayer16.utilization             0.0                       # Layer utilization (Ratio)
system.membus.respLayer17.occupancy            175304                       # Layer occupancy (ticks) (Tick)
system.membus.respLayer17.utilization             0.0                       # Layer utilization (Ratio)
system.membus.respLayer18.occupancy            180680                       # Layer occupancy (ticks) (Tick)
system.membus.respLayer18.utilization             0.0                       # Layer utilization (Ratio)
system.membus.respLayer19.occupancy            181568                       # Layer occupancy (ticks) (Tick)
system.membus.respLayer19.utilization             0.0                       # Layer utilization (Ratio)
system.membus.respLayer2.occupancy             163784                       # Layer occupancy (ticks) (Tick)
system.membus.respLayer2.utilization              0.0                       # Layer utilization (Ratio)
system.membus.respLayer20.occupancy            167286                       # Layer occupancy (ticks) (Tick)
system.membus.respLayer20.utilization             0.0                       # Layer utilization (Ratio)
system.membus.respLayer21.occupancy            167604                       # Layer occupancy (ticks) (Tick)
system.membus.respLayer21.utilization             0.0                       # Layer utilization (Ratio)
system.membus.respLayer22.occupancy            179660                       # Layer occupancy (ticks) (Tick)
system.membus.respLayer22.utilization             0.0                       # Layer utilization (Ratio)
system.membus.respLayer23.occupancy            181475                       # Layer occupancy (ticks) (Tick)
system.membus.respLayer23.utilization             0.0                       # Layer utilization (Ratio)
system.membus.respLayer24.occupancy            171136                       # Layer occupancy (ticks) (Tick)
system.membus.respLayer24.utilization             0.0                       # Layer utilization (Ratio)
system.membus.respLayer25.occupancy            164242                       # Layer occupancy (ticks) (Tick)
system.membus.respLayer25.utilization             0.0                       # Layer utilization (Ratio)
system.membus.respLayer26.occupancy            177299                       # Layer occupancy (ticks) (Tick)
system.membus.respLayer26.utilization             0.0                       # Layer utilization (Ratio)
system.membus.respLayer27.occupancy            186864                       # Layer occupancy (ticks) (Tick)
system.membus.respLayer27.utilization             0.0                       # Layer utilization (Ratio)
system.membus.respLayer28.occupancy            165437                       # Layer occupancy (ticks) (Tick)
system.membus.respLayer28.utilization             0.0                       # Layer utilization (Ratio)
system.membus.respLayer29.occupancy            191020                       # Layer occupancy (ticks) (Tick)
system.membus.respLayer29.utilization             0.0                       # Layer utilization (Ratio)
system.membus.respLayer3.occupancy             175140                       # Layer occupancy (ticks) (Tick)
system.membus.respLayer3.utilization              0.0                       # Layer utilization (Ratio)
system.membus.respLayer30.occupancy            169833                       # Layer occupancy (ticks) (Tick)
system.membus.respLayer30.utilization             0.0                       # Layer utilization (Ratio)
system.membus.respLayer31.occupancy            161992                       # Layer occupancy (ticks) (Tick)
system.membus.respLayer31.utilization             0.0                       # Layer utilization (Ratio)
system.membus.respLayer4.occupancy             171604                       # Layer occupancy (ticks) (Tick)
system.membus.respLayer4.utilization              0.0                       # Layer utilization (Ratio)
system.membus.respLayer5.occupancy             169008                       # Layer occupancy (ticks) (Tick)
system.membus.respLayer5.utilization              0.0                       # Layer utilization (Ratio)
system.membus.respLayer6.occupancy             167620                       # Layer occupancy (ticks) (Tick)
system.membus.respLayer6.utilization              0.0                       # Layer utilization (Ratio)
system.membus.respLayer7.occupancy             176881                       # Layer occupancy (ticks) (Tick)
system.membus.respLayer7.utilization              0.0                       # Layer utilization (Ratio)
system.membus.respLayer8.occupancy             174292                       # Layer occupancy (ticks) (Tick)
system.membus.respLayer8.utilization              0.0                       # Layer utilization (Ratio)
system.membus.respLayer9.occupancy             179978                       # Layer occupancy (ticks) (Tick)
system.membus.respLayer9.utilization              0.0                       # Layer utilization (Ratio)
system.workload.inst.arm                            0                       # number of arm instructions executed (Count)
system.workload.inst.quiesce                        0                       # number of quiesce instructions executed (Count)

---------- End Simulation Statistics   ----------
