
---------- Begin Simulation Statistics ----------
simSeconds                                   0.000100                       # Number of seconds simulated (Second)
simTicks                                    100001492                       # Number of ticks simulated (Tick)
finalTick                                   100001492                       # Number of ticks from beginning of simulation (restored from checkpoints and never reset) (Tick)
simFreq                                  1000000000000                       # The number of ticks per simulated second ((Tick/Second))
hostSeconds                                      0.10                       # Real time elapsed on the host (Second)
hostTickRate                                967176811                       # The number of ticks simulated per host second (ticks/s) ((Tick/Second))
hostMemory                                    3516576                       # Number of bytes of host memory used (Byte)
system.clk_domain.clock                           200                       # Clock period in ticks (Tick)
system.clk_domain.voltage_domain.voltage            1                       # Voltage in Volts (Volt)
system.far_mem_ctrl.avgPriority_writebacks::samples      2755.00                       # Average QoS priority value for accepted requests (Count)
system.far_mem_ctrl.priorityMinLatency   0.000000317492                       # per QoS priority minimum request to response latency (Second)
system.far_mem_ctrl.priorityMaxLatency   0.000001231492                       # per QoS priority maximum request to response latency (Second)
system.far_mem_ctrl.numReadWriteTurnArounds            0                       # Number of turnarounds from READ to WRITE (Count)
system.far_mem_ctrl.numWriteReadTurnArounds            0                       # Number of turnarounds from WRITE to READ (Count)
system.far_mem_ctrl.numStayReadState             8255                       # Number of times bus staying in READ state (Count)
system.far_mem_ctrl.numStayWriteState               0                       # Number of times bus staying in WRITE state (Count)
system.far_mem_ctrl.readReqs                     2754                       # Number of read requests accepted (Count)
system.far_mem_ctrl.writeReqs                       1                       # Number of write requests accepted (Count)
system.far_mem_ctrl.readBursts                   2754                       # Number of controller read bursts, including those serviced by the write queue (Count)
system.far_mem_ctrl.writeBursts                     1                       # Number of controller write bursts, including those merged in the write queue (Count)
system.far_mem_ctrl.servicedByWrQ                   0                       # Number of controller read bursts serviced by the write queue (Count)
system.far_mem_ctrl.mergedWrBursts                  0                       # Number of controller write bursts merged with an existing one (Count)
system.far_mem_ctrl.neitherReadNorWriteReqs            0                       # Number of requests that are neither read nor write (Count)
system.far_mem_ctrl.avgRdQLen                    7.31                       # Average read queue length when enqueuing ((Count/Tick))
system.far_mem_ctrl.avgWrQLen                    0.56                       # Average write queue length when enqueuing ((Count/Tick))
system.far_mem_ctrl.numRdRetry                      0                       # Number of times read queue was full causing retry (Count)
system.far_mem_ctrl.numWrRetry                      0                       # Number of times write queue was full causing retry (Count)
system.far_mem_ctrl.readPktSize::0                  0                       # Read request sizes (log2) (Count)
system.far_mem_ctrl.readPktSize::1                  0                       # Read request sizes (log2) (Count)
system.far_mem_ctrl.readPktSize::2                  0                       # Read request sizes (log2) (Count)
system.far_mem_ctrl.readPktSize::3                  0                       # Read request sizes (log2) (Count)
system.far_mem_ctrl.readPktSize::4                  0                       # Read request sizes (log2) (Count)
system.far_mem_ctrl.readPktSize::5                  0                       # Read request sizes (log2) (Count)
system.far_mem_ctrl.readPktSize::6               2754                       # Read request sizes (log2) (Count)
system.far_mem_ctrl.writePktSize::0                 0                       # Write request sizes (log2) (Count)
system.far_mem_ctrl.writePktSize::1                 0                       # Write request sizes (log2) (Count)
system.far_mem_ctrl.writePktSize::2                 0                       # Write request sizes (log2) (Count)
system.far_mem_ctrl.writePktSize::3                 0                       # Write request sizes (log2) (Count)
system.far_mem_ctrl.writePktSize::4                 0                       # Write request sizes (log2) (Count)
system.far_mem_ctrl.writePktSize::5                 0                       # Write request sizes (log2) (Count)
system.far_mem_ctrl.writePktSize::6                 1                       # Write request sizes (log2) (Count)
system.far_mem_ctrl.rdQLenPdf::0                   67                       # What read queue length does an incoming req see (Count)
system.far_mem_ctrl.rdQLenPdf::1                  176                       # What read queue length does an incoming req see (Count)
system.far_mem_ctrl.rdQLenPdf::2                  306                       # What read queue length does an incoming req see (Count)
system.far_mem_ctrl.rdQLenPdf::3                  370                       # What read queue length does an incoming req see (Count)
system.far_mem_ctrl.rdQLenPdf::4                  379                       # What read queue length does an incoming req see (Count)
system.far_mem_ctrl.rdQLenPdf::5                  394                       # What read queue length does an incoming req see (Count)
system.far_mem_ctrl.rdQLenPdf::6                  341                       # What read queue length does an incoming req see (Count)
system.far_mem_ctrl.rdQLenPdf::7                  283                       # What read queue length does an incoming req see (Count)
system.far_mem_ctrl.rdQLenPdf::8                  207                       # What read queue length does an incoming req see (Count)
system.far_mem_ctrl.rdQLenPdf::9                  136                       # What read queue length does an incoming req see (Count)
system.far_mem_ctrl.rdQLenPdf::10                  57                       # What read queue length does an incoming req see (Count)
system.far_mem_ctrl.rdQLenPdf::11                  27                       # What read queue length does an incoming req see (Count)
system.far_mem_ctrl.rdQLenPdf::12                  10                       # What read queue length does an incoming req see (Count)
system.far_mem_ctrl.rdQLenPdf::13                   1                       # What read queue length does an incoming req see (Count)
system.far_mem_ctrl.rdQLenPdf::14                   0                       # What read queue length does an incoming req see (Count)
system.far_mem_ctrl.rdQLenPdf::15                   0                       # What read queue length does an incoming req see (Count)
system.far_mem_ctrl.rdQLenPdf::16                   0                       # What read queue length does an incoming req see (Count)
system.far_mem_ctrl.rdQLenPdf::17                   0                       # What read queue length does an incoming req see (Count)
system.far_mem_ctrl.rdQLenPdf::18                   0                       # What read queue length does an incoming req see (Count)
system.far_mem_ctrl.rdQLenPdf::19                   0                       # What read queue length does an incoming req see (Count)
system.far_mem_ctrl.rdQLenPdf::20                   0                       # What read queue length does an incoming req see (Count)
system.far_mem_ctrl.rdQLenPdf::21                   0                       # What read queue length does an incoming req see (Count)
system.far_mem_ctrl.rdQLenPdf::22                   0                       # What read queue length does an incoming req see (Count)
system.far_mem_ctrl.rdQLenPdf::23                   0                       # What read queue length does an incoming req see (Count)
system.far_mem_ctrl.rdQLenPdf::24                   0                       # What read queue length does an incoming req see (Count)
system.far_mem_ctrl.rdQLenPdf::25                   0                       # What read queue length does an incoming req see (Count)
system.far_mem_ctrl.rdQLenPdf::26                   0                       # What read queue length does an incoming req see (Count)
system.far_mem_ctrl.rdQLenPdf::27                   0                       # What read queue length does an incoming req see (Count)
system.far_mem_ctrl.rdQLenPdf::28                   0                       # What read queue length does an incoming req see (Count)
system.far_mem_ctrl.rdQLenPdf::29                   0                       # What read queue length does an incoming req see (Count)
system.far_mem_ctrl.rdQLenPdf::30                   0                       # What read queue length does an incoming req see (Count)
system.far_mem_ctrl.rdQLenPdf::31                   0                       # What read queue length does an incoming req see (Count)
system.far_mem_ctrl.rdQLenPdf::32                   0                       # What read queue length does an incoming req see (Count)
system.far_mem_ctrl.rdQLenPdf::33                   0                       # What read queue length does an incoming req see (Count)
system.far_mem_ctrl.rdQLenPdf::34                   0                       # What read queue length does an incoming req see (Count)
system.far_mem_ctrl.rdQLenPdf::35                   0                       # What read queue length does an incoming req see (Count)
system.far_mem_ctrl.rdQLenPdf::36                   0                       # What read queue length does an incoming req see (Count)
system.far_mem_ctrl.rdQLenPdf::37                   0                       # What read queue length does an incoming req see (Count)
system.far_mem_ctrl.rdQLenPdf::38                   0                       # What read queue length does an incoming req see (Count)
system.far_mem_ctrl.rdQLenPdf::39                   0                       # What read queue length does an incoming req see (Count)
system.far_mem_ctrl.rdQLenPdf::40                   0                       # What read queue length does an incoming req see (Count)
system.far_mem_ctrl.rdQLenPdf::41                   0                       # What read queue length does an incoming req see (Count)
system.far_mem_ctrl.rdQLenPdf::42                   0                       # What read queue length does an incoming req see (Count)
system.far_mem_ctrl.rdQLenPdf::43                   0                       # What read queue length does an incoming req see (Count)
system.far_mem_ctrl.rdQLenPdf::44                   0                       # What read queue length does an incoming req see (Count)
system.far_mem_ctrl.rdQLenPdf::45                   0                       # What read queue length does an incoming req see (Count)
system.far_mem_ctrl.rdQLenPdf::46                   0                       # What read queue length does an incoming req see (Count)
system.far_mem_ctrl.rdQLenPdf::47                   0                       # What read queue length does an incoming req see (Count)
system.far_mem_ctrl.rdQLenPdf::48                   0                       # What read queue length does an incoming req see (Count)
system.far_mem_ctrl.rdQLenPdf::49                   0                       # What read queue length does an incoming req see (Count)
system.far_mem_ctrl.rdQLenPdf::50                   0                       # What read queue length does an incoming req see (Count)
system.far_mem_ctrl.rdQLenPdf::51                   0                       # What read queue length does an incoming req see (Count)
system.far_mem_ctrl.rdQLenPdf::52                   0                       # What read queue length does an incoming req see (Count)
system.far_mem_ctrl.rdQLenPdf::53                   0                       # What read queue length does an incoming req see (Count)
system.far_mem_ctrl.rdQLenPdf::54                   0                       # What read queue length does an incoming req see (Count)
system.far_mem_ctrl.rdQLenPdf::55                   0                       # What read queue length does an incoming req see (Count)
system.far_mem_ctrl.rdQLenPdf::56                   0                       # What read queue length does an incoming req see (Count)
system.far_mem_ctrl.rdQLenPdf::57                   0                       # What read queue length does an incoming req see (Count)
system.far_mem_ctrl.rdQLenPdf::58                   0                       # What read queue length does an incoming req see (Count)
system.far_mem_ctrl.rdQLenPdf::59                   0                       # What read queue length does an incoming req see (Count)
system.far_mem_ctrl.rdQLenPdf::60                   0                       # What read queue length does an incoming req see (Count)
system.far_mem_ctrl.rdQLenPdf::61                   0                       # What read queue length does an incoming req see (Count)
system.far_mem_ctrl.rdQLenPdf::62                   0                       # What read queue length does an incoming req see (Count)
system.far_mem_ctrl.rdQLenPdf::63                   0                       # What read queue length does an incoming req see (Count)
system.far_mem_ctrl.rdQLenPdf::64                   0                       # What read queue length does an incoming req see (Count)
system.far_mem_ctrl.rdQLenPdf::65                   0                       # What read queue length does an incoming req see (Count)
system.far_mem_ctrl.rdQLenPdf::66                   0                       # What read queue length does an incoming req see (Count)
system.far_mem_ctrl.rdQLenPdf::67                   0                       # What read queue length does an incoming req see (Count)
system.far_mem_ctrl.rdQLenPdf::68                   0                       # What read queue length does an incoming req see (Count)
system.far_mem_ctrl.rdQLenPdf::69                   0                       # What read queue length does an incoming req see (Count)
system.far_mem_ctrl.rdQLenPdf::70                   0                       # What read queue length does an incoming req see (Count)
system.far_mem_ctrl.rdQLenPdf::71                   0                       # What read queue length does an incoming req see (Count)
system.far_mem_ctrl.rdQLenPdf::72                   0                       # What read queue length does an incoming req see (Count)
system.far_mem_ctrl.rdQLenPdf::73                   0                       # What read queue length does an incoming req see (Count)
system.far_mem_ctrl.rdQLenPdf::74                   0                       # What read queue length does an incoming req see (Count)
system.far_mem_ctrl.rdQLenPdf::75                   0                       # What read queue length does an incoming req see (Count)
system.far_mem_ctrl.rdQLenPdf::76                   0                       # What read queue length does an incoming req see (Count)
system.far_mem_ctrl.rdQLenPdf::77                   0                       # What read queue length does an incoming req see (Count)
system.far_mem_ctrl.rdQLenPdf::78                   0                       # What read queue length does an incoming req see (Count)
system.far_mem_ctrl.rdQLenPdf::79                   0                       # What read queue length does an incoming req see (Count)
system.far_mem_ctrl.rdQLenPdf::80                   0                       # What read queue length does an incoming req see (Count)
system.far_mem_ctrl.rdQLenPdf::81                   0                       # What read queue length does an incoming req see (Count)
system.far_mem_ctrl.rdQLenPdf::82                   0                       # What read queue length does an incoming req see (Count)
system.far_mem_ctrl.rdQLenPdf::83                   0                       # What read queue length does an incoming req see (Count)
system.far_mem_ctrl.rdQLenPdf::84                   0                       # What read queue length does an incoming req see (Count)
system.far_mem_ctrl.rdQLenPdf::85                   0                       # What read queue length does an incoming req see (Count)
system.far_mem_ctrl.rdQLenPdf::86                   0                       # What read queue length does an incoming req see (Count)
system.far_mem_ctrl.rdQLenPdf::87                   0                       # What read queue length does an incoming req see (Count)
system.far_mem_ctrl.rdQLenPdf::88                   0                       # What read queue length does an incoming req see (Count)
system.far_mem_ctrl.rdQLenPdf::89                   0                       # What read queue length does an incoming req see (Count)
system.far_mem_ctrl.rdQLenPdf::90                   0                       # What read queue length does an incoming req see (Count)
system.far_mem_ctrl.rdQLenPdf::91                   0                       # What read queue length does an incoming req see (Count)
system.far_mem_ctrl.rdQLenPdf::92                   0                       # What read queue length does an incoming req see (Count)
system.far_mem_ctrl.rdQLenPdf::93                   0                       # What read queue length does an incoming req see (Count)
system.far_mem_ctrl.rdQLenPdf::94                   0                       # What read queue length does an incoming req see (Count)
system.far_mem_ctrl.rdQLenPdf::95                   0                       # What read queue length does an incoming req see (Count)
system.far_mem_ctrl.rdQLenPdf::96                   0                       # What read queue length does an incoming req see (Count)
system.far_mem_ctrl.rdQLenPdf::97                   0                       # What read queue length does an incoming req see (Count)
system.far_mem_ctrl.rdQLenPdf::98                   0                       # What read queue length does an incoming req see (Count)
system.far_mem_ctrl.rdQLenPdf::99                   0                       # What read queue length does an incoming req see (Count)
system.far_mem_ctrl.rdQLenPdf::100                  0                       # What read queue length does an incoming req see (Count)
system.far_mem_ctrl.rdQLenPdf::101                  0                       # What read queue length does an incoming req see (Count)
system.far_mem_ctrl.rdQLenPdf::102                  0                       # What read queue length does an incoming req see (Count)
system.far_mem_ctrl.rdQLenPdf::103                  0                       # What read queue length does an incoming req see (Count)
system.far_mem_ctrl.rdQLenPdf::104                  0                       # What read queue length does an incoming req see (Count)
system.far_mem_ctrl.rdQLenPdf::105                  0                       # What read queue length does an incoming req see (Count)
system.far_mem_ctrl.rdQLenPdf::106                  0                       # What read queue length does an incoming req see (Count)
system.far_mem_ctrl.rdQLenPdf::107                  0                       # What read queue length does an incoming req see (Count)
system.far_mem_ctrl.rdQLenPdf::108                  0                       # What read queue length does an incoming req see (Count)
system.far_mem_ctrl.rdQLenPdf::109                  0                       # What read queue length does an incoming req see (Count)
system.far_mem_ctrl.rdQLenPdf::110                  0                       # What read queue length does an incoming req see (Count)
system.far_mem_ctrl.rdQLenPdf::111                  0                       # What read queue length does an incoming req see (Count)
system.far_mem_ctrl.rdQLenPdf::112                  0                       # What read queue length does an incoming req see (Count)
system.far_mem_ctrl.rdQLenPdf::113                  0                       # What read queue length does an incoming req see (Count)
system.far_mem_ctrl.rdQLenPdf::114                  0                       # What read queue length does an incoming req see (Count)
system.far_mem_ctrl.rdQLenPdf::115                  0                       # What read queue length does an incoming req see (Count)
system.far_mem_ctrl.rdQLenPdf::116                  0                       # What read queue length does an incoming req see (Count)
system.far_mem_ctrl.rdQLenPdf::117                  0                       # What read queue length does an incoming req see (Count)
system.far_mem_ctrl.rdQLenPdf::118                  0                       # What read queue length does an incoming req see (Count)
system.far_mem_ctrl.rdQLenPdf::119                  0                       # What read queue length does an incoming req see (Count)
system.far_mem_ctrl.rdQLenPdf::120                  0                       # What read queue length does an incoming req see (Count)
system.far_mem_ctrl.rdQLenPdf::121                  0                       # What read queue length does an incoming req see (Count)
system.far_mem_ctrl.rdQLenPdf::122                  0                       # What read queue length does an incoming req see (Count)
system.far_mem_ctrl.rdQLenPdf::123                  0                       # What read queue length does an incoming req see (Count)
system.far_mem_ctrl.rdQLenPdf::124                  0                       # What read queue length does an incoming req see (Count)
system.far_mem_ctrl.rdQLenPdf::125                  0                       # What read queue length does an incoming req see (Count)
system.far_mem_ctrl.rdQLenPdf::126                  0                       # What read queue length does an incoming req see (Count)
system.far_mem_ctrl.rdQLenPdf::127                  0                       # What read queue length does an incoming req see (Count)
system.far_mem_ctrl.wrQLenPdf::0                    1                       # What write queue length does an incoming req see (Count)
system.far_mem_ctrl.wrQLenPdf::1                    0                       # What write queue length does an incoming req see (Count)
system.far_mem_ctrl.wrQLenPdf::2                    0                       # What write queue length does an incoming req see (Count)
system.far_mem_ctrl.wrQLenPdf::3                    0                       # What write queue length does an incoming req see (Count)
system.far_mem_ctrl.wrQLenPdf::4                    0                       # What write queue length does an incoming req see (Count)
system.far_mem_ctrl.wrQLenPdf::5                    0                       # What write queue length does an incoming req see (Count)
system.far_mem_ctrl.wrQLenPdf::6                    0                       # What write queue length does an incoming req see (Count)
system.far_mem_ctrl.wrQLenPdf::7                    0                       # What write queue length does an incoming req see (Count)
system.far_mem_ctrl.wrQLenPdf::8                    0                       # What write queue length does an incoming req see (Count)
system.far_mem_ctrl.wrQLenPdf::9                    0                       # What write queue length does an incoming req see (Count)
system.far_mem_ctrl.wrQLenPdf::10                   0                       # What write queue length does an incoming req see (Count)
system.far_mem_ctrl.wrQLenPdf::11                   0                       # What write queue length does an incoming req see (Count)
system.far_mem_ctrl.wrQLenPdf::12                   0                       # What write queue length does an incoming req see (Count)
system.far_mem_ctrl.wrQLenPdf::13                   0                       # What write queue length does an incoming req see (Count)
system.far_mem_ctrl.wrQLenPdf::14                   0                       # What write queue length does an incoming req see (Count)
system.far_mem_ctrl.wrQLenPdf::15                   0                       # What write queue length does an incoming req see (Count)
system.far_mem_ctrl.wrQLenPdf::16                   0                       # What write queue length does an incoming req see (Count)
system.far_mem_ctrl.wrQLenPdf::17                   0                       # What write queue length does an incoming req see (Count)
system.far_mem_ctrl.wrQLenPdf::18                   0                       # What write queue length does an incoming req see (Count)
system.far_mem_ctrl.wrQLenPdf::19                   0                       # What write queue length does an incoming req see (Count)
system.far_mem_ctrl.wrQLenPdf::20                   0                       # What write queue length does an incoming req see (Count)
system.far_mem_ctrl.wrQLenPdf::21                   0                       # What write queue length does an incoming req see (Count)
system.far_mem_ctrl.wrQLenPdf::22                   0                       # What write queue length does an incoming req see (Count)
system.far_mem_ctrl.wrQLenPdf::23                   0                       # What write queue length does an incoming req see (Count)
system.far_mem_ctrl.wrQLenPdf::24                   0                       # What write queue length does an incoming req see (Count)
system.far_mem_ctrl.wrQLenPdf::25                   0                       # What write queue length does an incoming req see (Count)
system.far_mem_ctrl.wrQLenPdf::26                   0                       # What write queue length does an incoming req see (Count)
system.far_mem_ctrl.wrQLenPdf::27                   0                       # What write queue length does an incoming req see (Count)
system.far_mem_ctrl.wrQLenPdf::28                   0                       # What write queue length does an incoming req see (Count)
system.far_mem_ctrl.wrQLenPdf::29                   0                       # What write queue length does an incoming req see (Count)
system.far_mem_ctrl.wrQLenPdf::30                   0                       # What write queue length does an incoming req see (Count)
system.far_mem_ctrl.wrQLenPdf::31                   0                       # What write queue length does an incoming req see (Count)
system.far_mem_ctrl.wrQLenPdf::32                   0                       # What write queue length does an incoming req see (Count)
system.far_mem_ctrl.wrQLenPdf::33                   0                       # What write queue length does an incoming req see (Count)
system.far_mem_ctrl.wrQLenPdf::34                   0                       # What write queue length does an incoming req see (Count)
system.far_mem_ctrl.wrQLenPdf::35                   0                       # What write queue length does an incoming req see (Count)
system.far_mem_ctrl.wrQLenPdf::36                   0                       # What write queue length does an incoming req see (Count)
system.far_mem_ctrl.wrQLenPdf::37                   0                       # What write queue length does an incoming req see (Count)
system.far_mem_ctrl.wrQLenPdf::38                   0                       # What write queue length does an incoming req see (Count)
system.far_mem_ctrl.wrQLenPdf::39                   0                       # What write queue length does an incoming req see (Count)
system.far_mem_ctrl.wrQLenPdf::40                   0                       # What write queue length does an incoming req see (Count)
system.far_mem_ctrl.wrQLenPdf::41                   0                       # What write queue length does an incoming req see (Count)
system.far_mem_ctrl.wrQLenPdf::42                   0                       # What write queue length does an incoming req see (Count)
system.far_mem_ctrl.wrQLenPdf::43                   0                       # What write queue length does an incoming req see (Count)
system.far_mem_ctrl.wrQLenPdf::44                   0                       # What write queue length does an incoming req see (Count)
system.far_mem_ctrl.wrQLenPdf::45                   0                       # What write queue length does an incoming req see (Count)
system.far_mem_ctrl.wrQLenPdf::46                   0                       # What write queue length does an incoming req see (Count)
system.far_mem_ctrl.wrQLenPdf::47                   0                       # What write queue length does an incoming req see (Count)
system.far_mem_ctrl.wrQLenPdf::48                   0                       # What write queue length does an incoming req see (Count)
system.far_mem_ctrl.wrQLenPdf::49                   0                       # What write queue length does an incoming req see (Count)
system.far_mem_ctrl.wrQLenPdf::50                   0                       # What write queue length does an incoming req see (Count)
system.far_mem_ctrl.wrQLenPdf::51                   0                       # What write queue length does an incoming req see (Count)
system.far_mem_ctrl.wrQLenPdf::52                   0                       # What write queue length does an incoming req see (Count)
system.far_mem_ctrl.wrQLenPdf::53                   0                       # What write queue length does an incoming req see (Count)
system.far_mem_ctrl.wrQLenPdf::54                   0                       # What write queue length does an incoming req see (Count)
system.far_mem_ctrl.wrQLenPdf::55                   0                       # What write queue length does an incoming req see (Count)
system.far_mem_ctrl.wrQLenPdf::56                   0                       # What write queue length does an incoming req see (Count)
system.far_mem_ctrl.wrQLenPdf::57                   0                       # What write queue length does an incoming req see (Count)
system.far_mem_ctrl.wrQLenPdf::58                   0                       # What write queue length does an incoming req see (Count)
system.far_mem_ctrl.wrQLenPdf::59                   0                       # What write queue length does an incoming req see (Count)
system.far_mem_ctrl.wrQLenPdf::60                   0                       # What write queue length does an incoming req see (Count)
system.far_mem_ctrl.wrQLenPdf::61                   0                       # What write queue length does an incoming req see (Count)
system.far_mem_ctrl.wrQLenPdf::62                   0                       # What write queue length does an incoming req see (Count)
system.far_mem_ctrl.wrQLenPdf::63                   0                       # What write queue length does an incoming req see (Count)
system.far_mem_ctrl.wrQLenPdf::64                   0                       # What write queue length does an incoming req see (Count)
system.far_mem_ctrl.wrQLenPdf::65                   0                       # What write queue length does an incoming req see (Count)
system.far_mem_ctrl.wrQLenPdf::66                   0                       # What write queue length does an incoming req see (Count)
system.far_mem_ctrl.wrQLenPdf::67                   0                       # What write queue length does an incoming req see (Count)
system.far_mem_ctrl.wrQLenPdf::68                   0                       # What write queue length does an incoming req see (Count)
system.far_mem_ctrl.wrQLenPdf::69                   0                       # What write queue length does an incoming req see (Count)
system.far_mem_ctrl.wrQLenPdf::70                   0                       # What write queue length does an incoming req see (Count)
system.far_mem_ctrl.wrQLenPdf::71                   0                       # What write queue length does an incoming req see (Count)
system.far_mem_ctrl.wrQLenPdf::72                   0                       # What write queue length does an incoming req see (Count)
system.far_mem_ctrl.wrQLenPdf::73                   0                       # What write queue length does an incoming req see (Count)
system.far_mem_ctrl.wrQLenPdf::74                   0                       # What write queue length does an incoming req see (Count)
system.far_mem_ctrl.wrQLenPdf::75                   0                       # What write queue length does an incoming req see (Count)
system.far_mem_ctrl.wrQLenPdf::76                   0                       # What write queue length does an incoming req see (Count)
system.far_mem_ctrl.wrQLenPdf::77                   0                       # What write queue length does an incoming req see (Count)
system.far_mem_ctrl.wrQLenPdf::78                   0                       # What write queue length does an incoming req see (Count)
system.far_mem_ctrl.wrQLenPdf::79                   0                       # What write queue length does an incoming req see (Count)
system.far_mem_ctrl.wrQLenPdf::80                   0                       # What write queue length does an incoming req see (Count)
system.far_mem_ctrl.wrQLenPdf::81                   0                       # What write queue length does an incoming req see (Count)
system.far_mem_ctrl.wrQLenPdf::82                   0                       # What write queue length does an incoming req see (Count)
system.far_mem_ctrl.wrQLenPdf::83                   0                       # What write queue length does an incoming req see (Count)
system.far_mem_ctrl.wrQLenPdf::84                   0                       # What write queue length does an incoming req see (Count)
system.far_mem_ctrl.wrQLenPdf::85                   0                       # What write queue length does an incoming req see (Count)
system.far_mem_ctrl.wrQLenPdf::86                   0                       # What write queue length does an incoming req see (Count)
system.far_mem_ctrl.wrQLenPdf::87                   0                       # What write queue length does an incoming req see (Count)
system.far_mem_ctrl.wrQLenPdf::88                   0                       # What write queue length does an incoming req see (Count)
system.far_mem_ctrl.wrQLenPdf::89                   0                       # What write queue length does an incoming req see (Count)
system.far_mem_ctrl.wrQLenPdf::90                   0                       # What write queue length does an incoming req see (Count)
system.far_mem_ctrl.wrQLenPdf::91                   0                       # What write queue length does an incoming req see (Count)
system.far_mem_ctrl.wrQLenPdf::92                   0                       # What write queue length does an incoming req see (Count)
system.far_mem_ctrl.wrQLenPdf::93                   0                       # What write queue length does an incoming req see (Count)
system.far_mem_ctrl.wrQLenPdf::94                   0                       # What write queue length does an incoming req see (Count)
system.far_mem_ctrl.wrQLenPdf::95                   0                       # What write queue length does an incoming req see (Count)
system.far_mem_ctrl.wrQLenPdf::96                   0                       # What write queue length does an incoming req see (Count)
system.far_mem_ctrl.wrQLenPdf::97                   0                       # What write queue length does an incoming req see (Count)
system.far_mem_ctrl.wrQLenPdf::98                   0                       # What write queue length does an incoming req see (Count)
system.far_mem_ctrl.wrQLenPdf::99                   0                       # What write queue length does an incoming req see (Count)
system.far_mem_ctrl.wrQLenPdf::100                  0                       # What write queue length does an incoming req see (Count)
system.far_mem_ctrl.wrQLenPdf::101                  0                       # What write queue length does an incoming req see (Count)
system.far_mem_ctrl.wrQLenPdf::102                  0                       # What write queue length does an incoming req see (Count)
system.far_mem_ctrl.wrQLenPdf::103                  0                       # What write queue length does an incoming req see (Count)
system.far_mem_ctrl.wrQLenPdf::104                  0                       # What write queue length does an incoming req see (Count)
system.far_mem_ctrl.wrQLenPdf::105                  0                       # What write queue length does an incoming req see (Count)
system.far_mem_ctrl.wrQLenPdf::106                  0                       # What write queue length does an incoming req see (Count)
system.far_mem_ctrl.wrQLenPdf::107                  0                       # What write queue length does an incoming req see (Count)
system.far_mem_ctrl.wrQLenPdf::108                  0                       # What write queue length does an incoming req see (Count)
system.far_mem_ctrl.wrQLenPdf::109                  0                       # What write queue length does an incoming req see (Count)
system.far_mem_ctrl.wrQLenPdf::110                  0                       # What write queue length does an incoming req see (Count)
system.far_mem_ctrl.wrQLenPdf::111                  0                       # What write queue length does an incoming req see (Count)
system.far_mem_ctrl.wrQLenPdf::112                  0                       # What write queue length does an incoming req see (Count)
system.far_mem_ctrl.wrQLenPdf::113                  0                       # What write queue length does an incoming req see (Count)
system.far_mem_ctrl.wrQLenPdf::114                  0                       # What write queue length does an incoming req see (Count)
system.far_mem_ctrl.wrQLenPdf::115                  0                       # What write queue length does an incoming req see (Count)
system.far_mem_ctrl.wrQLenPdf::116                  0                       # What write queue length does an incoming req see (Count)
system.far_mem_ctrl.wrQLenPdf::117                  0                       # What write queue length does an incoming req see (Count)
system.far_mem_ctrl.wrQLenPdf::118                  0                       # What write queue length does an incoming req see (Count)
system.far_mem_ctrl.wrQLenPdf::119                  0                       # What write queue length does an incoming req see (Count)
system.far_mem_ctrl.wrQLenPdf::120                  0                       # What write queue length does an incoming req see (Count)
system.far_mem_ctrl.wrQLenPdf::121                  0                       # What write queue length does an incoming req see (Count)
system.far_mem_ctrl.wrQLenPdf::122                  0                       # What write queue length does an incoming req see (Count)
system.far_mem_ctrl.wrQLenPdf::123                  0                       # What write queue length does an incoming req see (Count)
system.far_mem_ctrl.wrQLenPdf::124                  0                       # What write queue length does an incoming req see (Count)
system.far_mem_ctrl.wrQLenPdf::125                  0                       # What write queue length does an incoming req see (Count)
system.far_mem_ctrl.wrQLenPdf::126                  0                       # What write queue length does an incoming req see (Count)
system.far_mem_ctrl.wrQLenPdf::127                  0                       # What write queue length does an incoming req see (Count)
system.far_mem_ctrl.bytesReadWrQ                    0                       # Total number of bytes read from write queue (Byte)
system.far_mem_ctrl.bytesReadSys               176256                       # Total read bytes from the system interface side (Byte)
system.far_mem_ctrl.bytesWrittenSys                64                       # Total written bytes from the system interface side (Byte)
system.far_mem_ctrl.avgRdBWSys           1762533702.99715114                       # Average system read bandwidth in Byte/s ((Byte/Second))
system.far_mem_ctrl.avgWrBWSys           639990.45134247                       # Average system write bandwidth in Byte/s ((Byte/Second))
system.far_mem_ctrl.totGap                   99829000                       # Total gap between requests (Tick)
system.far_mem_ctrl.avgGap                   36235.57                       # Average gap between requests ((Tick/Count))
system.far_mem_ctrl.requestorReadBytes::writebacks       176000                       # Per-requestor bytes read from memory (Byte)
system.far_mem_ctrl.requestorReadRate::writebacks 1759973741.191781282425                       # Per-requestor bytes read from memory rate ((Byte/Second))
system.far_mem_ctrl.requestorReadAccesses::writebacks         2754                       # Per-requestor read serviced memory accesses (Count)
system.far_mem_ctrl.requestorWriteAccesses::writebacks            1                       # Per-requestor write serviced memory accesses (Count)
system.far_mem_ctrl.requestorReadTotalLat::writebacks    538291191                       # Per-requestor read total memory access latency (Tick)
system.far_mem_ctrl.requestorReadAvgLat::writebacks    195457.95                       # Per-requestor read average memory access latency ((Tick/Count))
system.far_mem_ctrl.requestorWriteAvgLat::writebacks         0.00                       # Per-requestor write average memory access latency ((Tick/Count))
system.far_mem_ctrl.dram.bytesRead::writebacks       175872                       # Number of bytes read from this memory (Byte)
system.far_mem_ctrl.dram.bytesRead::total       175872                       # Number of bytes read from this memory (Byte)
system.far_mem_ctrl.dram.bytesWritten::writebacks           64                       # Number of bytes written to this memory (Byte)
system.far_mem_ctrl.dram.bytesWritten::total           64                       # Number of bytes written to this memory (Byte)
system.far_mem_ctrl.dram.numReads::writebacks         2748                       # Number of read requests responded to by this memory (Count)
system.far_mem_ctrl.dram.numReads::total         2748                       # Number of read requests responded to by this memory (Count)
system.far_mem_ctrl.dram.numWrites::writebacks            1                       # Number of write requests responded to by this memory (Count)
system.far_mem_ctrl.dram.numWrites::total            1                       # Number of write requests responded to by this memory (Count)
system.far_mem_ctrl.dram.bwRead::writebacks   1758693760                       # Total read bandwidth from this memory ((Byte/Second))
system.far_mem_ctrl.dram.bwRead::total     1758693760                       # Total read bandwidth from this memory ((Byte/Second))
system.far_mem_ctrl.dram.bwWrite::writebacks       639990                       # Write bandwidth from this memory ((Byte/Second))
system.far_mem_ctrl.dram.bwWrite::total        639990                       # Write bandwidth from this memory ((Byte/Second))
system.far_mem_ctrl.dram.bwTotal::writebacks   1759333751                       # Total bandwidth to/from this memory ((Byte/Second))
system.far_mem_ctrl.dram.bwTotal::total    1759333751                       # Total bandwidth to/from this memory ((Byte/Second))
system.far_mem_ctrl.dram.readBursts              2750                       # Number of NVM read bursts (Count)
system.far_mem_ctrl.dram.writeBursts                0                       # Number of NVM write bursts (Count)
system.far_mem_ctrl.dram.perBankRdBursts::0          160                       # Per bank write bursts (Count)
system.far_mem_ctrl.dram.perBankRdBursts::1          184                       # Per bank write bursts (Count)
system.far_mem_ctrl.dram.perBankRdBursts::2          176                       # Per bank write bursts (Count)
system.far_mem_ctrl.dram.perBankRdBursts::3          163                       # Per bank write bursts (Count)
system.far_mem_ctrl.dram.perBankRdBursts::4          184                       # Per bank write bursts (Count)
system.far_mem_ctrl.dram.perBankRdBursts::5          176                       # Per bank write bursts (Count)
system.far_mem_ctrl.dram.perBankRdBursts::6          190                       # Per bank write bursts (Count)
system.far_mem_ctrl.dram.perBankRdBursts::7          155                       # Per bank write bursts (Count)
system.far_mem_ctrl.dram.perBankRdBursts::8          193                       # Per bank write bursts (Count)
system.far_mem_ctrl.dram.perBankRdBursts::9          183                       # Per bank write bursts (Count)
system.far_mem_ctrl.dram.perBankRdBursts::10          167                       # Per bank write bursts (Count)
system.far_mem_ctrl.dram.perBankRdBursts::11          159                       # Per bank write bursts (Count)
system.far_mem_ctrl.dram.perBankRdBursts::12          171                       # Per bank write bursts (Count)
system.far_mem_ctrl.dram.perBankRdBursts::13          172                       # Per bank write bursts (Count)
system.far_mem_ctrl.dram.perBankRdBursts::14          153                       # Per bank write bursts (Count)
system.far_mem_ctrl.dram.perBankRdBursts::15          164                       # Per bank write bursts (Count)
system.far_mem_ctrl.dram.perBankWrBursts::0            0                       # Per bank write bursts (Count)
system.far_mem_ctrl.dram.perBankWrBursts::1            0                       # Per bank write bursts (Count)
system.far_mem_ctrl.dram.perBankWrBursts::2            0                       # Per bank write bursts (Count)
system.far_mem_ctrl.dram.perBankWrBursts::3            0                       # Per bank write bursts (Count)
system.far_mem_ctrl.dram.perBankWrBursts::4            0                       # Per bank write bursts (Count)
system.far_mem_ctrl.dram.perBankWrBursts::5            0                       # Per bank write bursts (Count)
system.far_mem_ctrl.dram.perBankWrBursts::6            0                       # Per bank write bursts (Count)
system.far_mem_ctrl.dram.perBankWrBursts::7            0                       # Per bank write bursts (Count)
system.far_mem_ctrl.dram.perBankWrBursts::8            0                       # Per bank write bursts (Count)
system.far_mem_ctrl.dram.perBankWrBursts::9            0                       # Per bank write bursts (Count)
system.far_mem_ctrl.dram.perBankWrBursts::10            0                       # Per bank write bursts (Count)
system.far_mem_ctrl.dram.perBankWrBursts::11            0                       # Per bank write bursts (Count)
system.far_mem_ctrl.dram.perBankWrBursts::12            0                       # Per bank write bursts (Count)
system.far_mem_ctrl.dram.perBankWrBursts::13            0                       # Per bank write bursts (Count)
system.far_mem_ctrl.dram.perBankWrBursts::14            0                       # Per bank write bursts (Count)
system.far_mem_ctrl.dram.perBankWrBursts::15            0                       # Per bank write bursts (Count)
system.far_mem_ctrl.dram.totQLat            490188191                       # Total ticks spent queuing (Tick)
system.far_mem_ctrl.dram.totBusLat            9163000                       # Total ticks spent in databus transfers (Tick)
system.far_mem_ctrl.dram.totMemAccLat       538291191                       # Total ticks spent from burst creation until serviced by the NVM (Tick)
system.far_mem_ctrl.dram.avgQLat            178250.25                       # Average queueing delay per NVM burst ((Tick/Count))
system.far_mem_ctrl.dram.avgBusLat            3332.00                       # Average bus latency per NVM burst ((Tick/Count))
system.far_mem_ctrl.dram.avgMemAccLat       195742.25                       # Average memory access latency per NVM burst ((Tick/Count))
system.far_mem_ctrl.dram.avgRdBW              1759.97                       # Average DRAM read bandwidth in MiBytes/s ((Byte/Second))
system.far_mem_ctrl.dram.avgWrBW                 0.00                       # Average DRAM write bandwidth in MiBytes/s ((Byte/Second))
system.far_mem_ctrl.dram.peakBW              19207.00                       # Theoretical peak bandwidth in MiByte/s ((Byte/Second))
system.far_mem_ctrl.dram.busUtil                 9.16                       # NVM Data bus utilization in percentage (Ratio)
system.far_mem_ctrl.dram.busUtilRead             9.16                       # NVM Data bus read utilization in percentage (Ratio)
system.far_mem_ctrl.dram.busUtilWrite            0.00                       # NVM Data bus write utilization in percentage (Ratio)
system.far_mem_ctrl.dram.pendingReads::samples         2750                       # Reads issued to NVM for which data has not been transferred (Count)
system.far_mem_ctrl.dram.pendingReads::mean     4.612364                       # Reads issued to NVM for which data has not been transferred (Count)
system.far_mem_ctrl.dram.pendingReads::stdev     2.491950                       # Reads issued to NVM for which data has not been transferred (Count)
system.far_mem_ctrl.dram.pendingReads::0           91      3.31%      3.31% # Reads issued to NVM for which data has not been transferred (Count)
system.far_mem_ctrl.dram.pendingReads::1          204      7.42%     10.73% # Reads issued to NVM for which data has not been transferred (Count)
system.far_mem_ctrl.dram.pendingReads::2          316     11.49%     22.22% # Reads issued to NVM for which data has not been transferred (Count)
system.far_mem_ctrl.dram.pendingReads::3          372     13.53%     35.75% # Reads issued to NVM for which data has not been transferred (Count)
system.far_mem_ctrl.dram.pendingReads::4          398     14.47%     50.22% # Reads issued to NVM for which data has not been transferred (Count)
system.far_mem_ctrl.dram.pendingReads::5          398     14.47%     64.69% # Reads issued to NVM for which data has not been transferred (Count)
system.far_mem_ctrl.dram.pendingReads::6          328     11.93%     76.62% # Reads issued to NVM for which data has not been transferred (Count)
system.far_mem_ctrl.dram.pendingReads::7          266      9.67%     86.29% # Reads issued to NVM for which data has not been transferred (Count)
system.far_mem_ctrl.dram.pendingReads::8          186      6.76%     93.05% # Reads issued to NVM for which data has not been transferred (Count)
system.far_mem_ctrl.dram.pendingReads::9          110      4.00%     97.05% # Reads issued to NVM for which data has not been transferred (Count)
system.far_mem_ctrl.dram.pendingReads::10           55      2.00%     99.05% # Reads issued to NVM for which data has not been transferred (Count)
system.far_mem_ctrl.dram.pendingReads::11           20      0.73%     99.78% # Reads issued to NVM for which data has not been transferred (Count)
system.far_mem_ctrl.dram.pendingReads::12            6      0.22%    100.00% # Reads issued to NVM for which data has not been transferred (Count)
system.far_mem_ctrl.dram.pendingReads::total         2750                       # Reads issued to NVM for which data has not been transferred (Count)
system.far_mem_ctrl.dram.bytesPerBank::samples         2754                       # Bytes read within a bank before loading new bank (Byte)
system.far_mem_ctrl.dram.bytesPerBank::mean           64                       # Bytes read within a bank before loading new bank (Byte)
system.far_mem_ctrl.dram.bytesPerBank::gmean    64.000000                       # Bytes read within a bank before loading new bank (Byte)
system.far_mem_ctrl.dram.bytesPerBank::64         2754    100.00%    100.00% # Bytes read within a bank before loading new bank (Byte)
system.far_mem_ctrl.dram.bytesPerBank::total         2754                       # Bytes read within a bank before loading new bank (Byte)
system.far_mem_ctrl.dram.power_state.pwrStateResidencyTicks::UNDEFINED    100001492                       # Cumulative time (in ticks) in various power states (Tick)
system.far_mem_ctrl.power_state.pwrStateResidencyTicks::UNDEFINED    100001492                       # Cumulative time (in ticks) in various power states (Tick)
system.generators.numSuppressed                     0                       # Number of suppressed packets to non-memory space (Count)
system.generators.numPackets                     5907                       # Number of packets generated (Count)
system.generators.numRetries                     5650                       # Number of retries (Count)
system.generators.retryTicks                 99896033                       # Time spent waiting due to back-pressure (Tick)
system.generators.bytesRead                    175552                       # Number of bytes read (Byte)
system.generators.bytesWritten                 194240                       # Number of bytes written (Byte)
system.generators.totalReadLatency        12599810678                       # Total latency of read requests (Tick)
system.generators.totalWriteLatency         111664938                       # Total latency of write requests (Tick)
system.generators.totalReads                     2743                       # Total num of reads (Count)
system.generators.totalWrites                    3035                       # Total num of writes (Count)
system.generators.avgReadLatency         4593441.734597                       # Avg latency of read requests ((Tick/Count))
system.generators.avgWriteLatency        36792.401318                       # Avg latency of write requests ((Tick/Count))
system.generators.readBW                 1755493808.032384                       # Read bandwidth ((Byte/Second))
system.generators.writeBW                1942371019.824384                       # Write bandwidth ((Byte/Second))
system.generators.power_state.pwrStateResidencyTicks::UNDEFINED    100001492                       # Cumulative time (in ticks) in various power states (Tick)
system.loc_mem_ctrlrs.avgPriority_writebacks::samples     11345.00                       # Average QoS priority value for accepted requests (Count)
system.loc_mem_ctrlrs.priorityMinLatency 0.000000048603                       # per QoS priority minimum request to response latency (Second)
system.loc_mem_ctrlrs.priorityMaxLatency 0.000010508000                       # per QoS priority maximum request to response latency (Second)
system.loc_mem_ctrlrs.numReadWriteTurnArounds          350                       # Number of turnarounds from READ to WRITE (Count)
system.loc_mem_ctrlrs.numWriteReadTurnArounds          350                       # Number of turnarounds from WRITE to READ (Count)
system.loc_mem_ctrlrs.numStayReadState           5434                       # Number of times bus staying in READ state (Count)
system.loc_mem_ctrlrs.numStayWriteState          5376                       # Number of times bus staying in WRITE state (Count)
system.loc_mem_ctrlrs.readReqs                   5692                       # Number of read requests accepted (Count)
system.loc_mem_ctrlrs.writeReqs                  5653                       # Number of write requests accepted (Count)
system.loc_mem_ctrlrs.readBursts                 5692                       # Number of controller read bursts, including those serviced by the write queue (Count)
system.loc_mem_ctrlrs.writeBursts                5653                       # Number of controller write bursts, including those merged in the write queue (Count)
system.loc_mem_ctrlrs.servicedByWrQ                 0                       # Number of controller read bursts serviced by the write queue (Count)
system.loc_mem_ctrlrs.mergedWrBursts                0                       # Number of controller write bursts merged with an existing one (Count)
system.loc_mem_ctrlrs.neitherReadNorWriteReqs            0                       # Number of requests that are neither read nor write (Count)
system.loc_mem_ctrlrs.avgRdQLen                 32.00                       # Average read queue length when enqueuing ((Count/Tick))
system.loc_mem_ctrlrs.avgWrQLen                 58.65                       # Average write queue length when enqueuing ((Count/Tick))
system.loc_mem_ctrlrs.numRdRetry                 5776                       # Number of times read queue was full causing retry (Count)
system.loc_mem_ctrlrs.numWrRetry                  219                       # Number of times write queue was full causing retry (Count)
system.loc_mem_ctrlrs.readPktSize::0                0                       # Read request sizes (log2) (Count)
system.loc_mem_ctrlrs.readPktSize::1                0                       # Read request sizes (log2) (Count)
system.loc_mem_ctrlrs.readPktSize::2                0                       # Read request sizes (log2) (Count)
system.loc_mem_ctrlrs.readPktSize::3                0                       # Read request sizes (log2) (Count)
system.loc_mem_ctrlrs.readPktSize::4                0                       # Read request sizes (log2) (Count)
system.loc_mem_ctrlrs.readPktSize::5                0                       # Read request sizes (log2) (Count)
system.loc_mem_ctrlrs.readPktSize::6             5692                       # Read request sizes (log2) (Count)
system.loc_mem_ctrlrs.writePktSize::0               0                       # Write request sizes (log2) (Count)
system.loc_mem_ctrlrs.writePktSize::1               0                       # Write request sizes (log2) (Count)
system.loc_mem_ctrlrs.writePktSize::2               0                       # Write request sizes (log2) (Count)
system.loc_mem_ctrlrs.writePktSize::3               0                       # Write request sizes (log2) (Count)
system.loc_mem_ctrlrs.writePktSize::4               0                       # Write request sizes (log2) (Count)
system.loc_mem_ctrlrs.writePktSize::5               0                       # Write request sizes (log2) (Count)
system.loc_mem_ctrlrs.writePktSize::6            5653                       # Write request sizes (log2) (Count)
system.loc_mem_ctrlrs.rdQLenPdf::0                  1                       # What read queue length does an incoming req see (Count)
system.loc_mem_ctrlrs.rdQLenPdf::1                  1                       # What read queue length does an incoming req see (Count)
system.loc_mem_ctrlrs.rdQLenPdf::2                  1                       # What read queue length does an incoming req see (Count)
system.loc_mem_ctrlrs.rdQLenPdf::3                  1                       # What read queue length does an incoming req see (Count)
system.loc_mem_ctrlrs.rdQLenPdf::4                  1                       # What read queue length does an incoming req see (Count)
system.loc_mem_ctrlrs.rdQLenPdf::5                  1                       # What read queue length does an incoming req see (Count)
system.loc_mem_ctrlrs.rdQLenPdf::6                  1                       # What read queue length does an incoming req see (Count)
system.loc_mem_ctrlrs.rdQLenPdf::7                  1                       # What read queue length does an incoming req see (Count)
system.loc_mem_ctrlrs.rdQLenPdf::8                  1                       # What read queue length does an incoming req see (Count)
system.loc_mem_ctrlrs.rdQLenPdf::9                  1                       # What read queue length does an incoming req see (Count)
system.loc_mem_ctrlrs.rdQLenPdf::10                 1                       # What read queue length does an incoming req see (Count)
system.loc_mem_ctrlrs.rdQLenPdf::11                 1                       # What read queue length does an incoming req see (Count)
system.loc_mem_ctrlrs.rdQLenPdf::12                 1                       # What read queue length does an incoming req see (Count)
system.loc_mem_ctrlrs.rdQLenPdf::13                 1                       # What read queue length does an incoming req see (Count)
system.loc_mem_ctrlrs.rdQLenPdf::14                 1                       # What read queue length does an incoming req see (Count)
system.loc_mem_ctrlrs.rdQLenPdf::15                 1                       # What read queue length does an incoming req see (Count)
system.loc_mem_ctrlrs.rdQLenPdf::16                 1                       # What read queue length does an incoming req see (Count)
system.loc_mem_ctrlrs.rdQLenPdf::17                 1                       # What read queue length does an incoming req see (Count)
system.loc_mem_ctrlrs.rdQLenPdf::18                 1                       # What read queue length does an incoming req see (Count)
system.loc_mem_ctrlrs.rdQLenPdf::19                 1                       # What read queue length does an incoming req see (Count)
system.loc_mem_ctrlrs.rdQLenPdf::20                 1                       # What read queue length does an incoming req see (Count)
system.loc_mem_ctrlrs.rdQLenPdf::21                 1                       # What read queue length does an incoming req see (Count)
system.loc_mem_ctrlrs.rdQLenPdf::22                 1                       # What read queue length does an incoming req see (Count)
system.loc_mem_ctrlrs.rdQLenPdf::23                 1                       # What read queue length does an incoming req see (Count)
system.loc_mem_ctrlrs.rdQLenPdf::24                 1                       # What read queue length does an incoming req see (Count)
system.loc_mem_ctrlrs.rdQLenPdf::25                 1                       # What read queue length does an incoming req see (Count)
system.loc_mem_ctrlrs.rdQLenPdf::26                 1                       # What read queue length does an incoming req see (Count)
system.loc_mem_ctrlrs.rdQLenPdf::27                 1                       # What read queue length does an incoming req see (Count)
system.loc_mem_ctrlrs.rdQLenPdf::28                 1                       # What read queue length does an incoming req see (Count)
system.loc_mem_ctrlrs.rdQLenPdf::29                 1                       # What read queue length does an incoming req see (Count)
system.loc_mem_ctrlrs.rdQLenPdf::30                 1                       # What read queue length does an incoming req see (Count)
system.loc_mem_ctrlrs.rdQLenPdf::31              5661                       # What read queue length does an incoming req see (Count)
system.loc_mem_ctrlrs.wrQLenPdf::0                  1                       # What write queue length does an incoming req see (Count)
system.loc_mem_ctrlrs.wrQLenPdf::1                  1                       # What write queue length does an incoming req see (Count)
system.loc_mem_ctrlrs.wrQLenPdf::2                  1                       # What write queue length does an incoming req see (Count)
system.loc_mem_ctrlrs.wrQLenPdf::3                  1                       # What write queue length does an incoming req see (Count)
system.loc_mem_ctrlrs.wrQLenPdf::4                  1                       # What write queue length does an incoming req see (Count)
system.loc_mem_ctrlrs.wrQLenPdf::5                  1                       # What write queue length does an incoming req see (Count)
system.loc_mem_ctrlrs.wrQLenPdf::6                  1                       # What write queue length does an incoming req see (Count)
system.loc_mem_ctrlrs.wrQLenPdf::7                  1                       # What write queue length does an incoming req see (Count)
system.loc_mem_ctrlrs.wrQLenPdf::8                  1                       # What write queue length does an incoming req see (Count)
system.loc_mem_ctrlrs.wrQLenPdf::9                  1                       # What write queue length does an incoming req see (Count)
system.loc_mem_ctrlrs.wrQLenPdf::10                 1                       # What write queue length does an incoming req see (Count)
system.loc_mem_ctrlrs.wrQLenPdf::11                 1                       # What write queue length does an incoming req see (Count)
system.loc_mem_ctrlrs.wrQLenPdf::12                 1                       # What write queue length does an incoming req see (Count)
system.loc_mem_ctrlrs.wrQLenPdf::13                 1                       # What write queue length does an incoming req see (Count)
system.loc_mem_ctrlrs.wrQLenPdf::14                 1                       # What write queue length does an incoming req see (Count)
system.loc_mem_ctrlrs.wrQLenPdf::15                 1                       # What write queue length does an incoming req see (Count)
system.loc_mem_ctrlrs.wrQLenPdf::16                 1                       # What write queue length does an incoming req see (Count)
system.loc_mem_ctrlrs.wrQLenPdf::17                 1                       # What write queue length does an incoming req see (Count)
system.loc_mem_ctrlrs.wrQLenPdf::18                 1                       # What write queue length does an incoming req see (Count)
system.loc_mem_ctrlrs.wrQLenPdf::19                 1                       # What write queue length does an incoming req see (Count)
system.loc_mem_ctrlrs.wrQLenPdf::20                 1                       # What write queue length does an incoming req see (Count)
system.loc_mem_ctrlrs.wrQLenPdf::21                 1                       # What write queue length does an incoming req see (Count)
system.loc_mem_ctrlrs.wrQLenPdf::22                 1                       # What write queue length does an incoming req see (Count)
system.loc_mem_ctrlrs.wrQLenPdf::23                 1                       # What write queue length does an incoming req see (Count)
system.loc_mem_ctrlrs.wrQLenPdf::24                 1                       # What write queue length does an incoming req see (Count)
system.loc_mem_ctrlrs.wrQLenPdf::25                 1                       # What write queue length does an incoming req see (Count)
system.loc_mem_ctrlrs.wrQLenPdf::26                 1                       # What write queue length does an incoming req see (Count)
system.loc_mem_ctrlrs.wrQLenPdf::27                 1                       # What write queue length does an incoming req see (Count)
system.loc_mem_ctrlrs.wrQLenPdf::28                 1                       # What write queue length does an incoming req see (Count)
system.loc_mem_ctrlrs.wrQLenPdf::29                 1                       # What write queue length does an incoming req see (Count)
system.loc_mem_ctrlrs.wrQLenPdf::30                 1                       # What write queue length does an incoming req see (Count)
system.loc_mem_ctrlrs.wrQLenPdf::31                 1                       # What write queue length does an incoming req see (Count)
system.loc_mem_ctrlrs.wrQLenPdf::32                 1                       # What write queue length does an incoming req see (Count)
system.loc_mem_ctrlrs.wrQLenPdf::33                 1                       # What write queue length does an incoming req see (Count)
system.loc_mem_ctrlrs.wrQLenPdf::34                 1                       # What write queue length does an incoming req see (Count)
system.loc_mem_ctrlrs.wrQLenPdf::35                 1                       # What write queue length does an incoming req see (Count)
system.loc_mem_ctrlrs.wrQLenPdf::36                 1                       # What write queue length does an incoming req see (Count)
system.loc_mem_ctrlrs.wrQLenPdf::37                 1                       # What write queue length does an incoming req see (Count)
system.loc_mem_ctrlrs.wrQLenPdf::38                 1                       # What write queue length does an incoming req see (Count)
system.loc_mem_ctrlrs.wrQLenPdf::39                 1                       # What write queue length does an incoming req see (Count)
system.loc_mem_ctrlrs.wrQLenPdf::40                 1                       # What write queue length does an incoming req see (Count)
system.loc_mem_ctrlrs.wrQLenPdf::41                 1                       # What write queue length does an incoming req see (Count)
system.loc_mem_ctrlrs.wrQLenPdf::42                 1                       # What write queue length does an incoming req see (Count)
system.loc_mem_ctrlrs.wrQLenPdf::43                 1                       # What write queue length does an incoming req see (Count)
system.loc_mem_ctrlrs.wrQLenPdf::44                 1                       # What write queue length does an incoming req see (Count)
system.loc_mem_ctrlrs.wrQLenPdf::45                 1                       # What write queue length does an incoming req see (Count)
system.loc_mem_ctrlrs.wrQLenPdf::46                 1                       # What write queue length does an incoming req see (Count)
system.loc_mem_ctrlrs.wrQLenPdf::47                 4                       # What write queue length does an incoming req see (Count)
system.loc_mem_ctrlrs.wrQLenPdf::48                13                       # What write queue length does an incoming req see (Count)
system.loc_mem_ctrlrs.wrQLenPdf::49                38                       # What write queue length does an incoming req see (Count)
system.loc_mem_ctrlrs.wrQLenPdf::50                83                       # What write queue length does an incoming req see (Count)
system.loc_mem_ctrlrs.wrQLenPdf::51               145                       # What write queue length does an incoming req see (Count)
system.loc_mem_ctrlrs.wrQLenPdf::52               203                       # What write queue length does an incoming req see (Count)
system.loc_mem_ctrlrs.wrQLenPdf::53               284                       # What write queue length does an incoming req see (Count)
system.loc_mem_ctrlrs.wrQLenPdf::54               344                       # What write queue length does an incoming req see (Count)
system.loc_mem_ctrlrs.wrQLenPdf::55               379                       # What write queue length does an incoming req see (Count)
system.loc_mem_ctrlrs.wrQLenPdf::56               496                       # What write queue length does an incoming req see (Count)
system.loc_mem_ctrlrs.wrQLenPdf::57               557                       # What write queue length does an incoming req see (Count)
system.loc_mem_ctrlrs.wrQLenPdf::58               635                       # What write queue length does an incoming req see (Count)
system.loc_mem_ctrlrs.wrQLenPdf::59               681                       # What write queue length does an incoming req see (Count)
system.loc_mem_ctrlrs.wrQLenPdf::60               633                       # What write queue length does an incoming req see (Count)
system.loc_mem_ctrlrs.wrQLenPdf::61               472                       # What write queue length does an incoming req see (Count)
system.loc_mem_ctrlrs.wrQLenPdf::62               341                       # What write queue length does an incoming req see (Count)
system.loc_mem_ctrlrs.wrQLenPdf::63               298                       # What write queue length does an incoming req see (Count)
system.loc_mem_ctrlrs.rdPerTurnAround::samples          350                       # Reads before turning the bus around for writes (Count)
system.loc_mem_ctrlrs.rdPerTurnAround::mean    16.171429                       # Reads before turning the bus around for writes (Count)
system.loc_mem_ctrlrs.rdPerTurnAround::gmean    16.071388                       # Reads before turning the bus around for writes (Count)
system.loc_mem_ctrlrs.rdPerTurnAround::stdev     3.207135                       # Reads before turning the bus around for writes (Count)
system.loc_mem_ctrlrs.rdPerTurnAround::16-19          349     99.71%     99.71% # Reads before turning the bus around for writes (Count)
system.loc_mem_ctrlrs.rdPerTurnAround::76-79            1      0.29%    100.00% # Reads before turning the bus around for writes (Count)
system.loc_mem_ctrlrs.rdPerTurnAround::total          350                       # Reads before turning the bus around for writes (Count)
system.loc_mem_ctrlrs.wrPerTurnAround::samples          350                       # Writes before turning the bus around for reads (Count)
system.loc_mem_ctrlrs.wrPerTurnAround::mean           16                       # Writes before turning the bus around for reads (Count)
system.loc_mem_ctrlrs.wrPerTurnAround::gmean    16.000000                       # Writes before turning the bus around for reads (Count)
system.loc_mem_ctrlrs.wrPerTurnAround::16          350    100.00%    100.00% # Writes before turning the bus around for reads (Count)
system.loc_mem_ctrlrs.wrPerTurnAround::total          350                       # Writes before turning the bus around for reads (Count)
system.loc_mem_ctrlrs.bytesReadWrQ                  0                       # Total number of bytes read from write queue (Byte)
system.loc_mem_ctrlrs.bytesReadSys             364288                       # Total read bytes from the system interface side (Byte)
system.loc_mem_ctrlrs.bytesWrittenSys          361792                       # Total written bytes from the system interface side (Byte)
system.loc_mem_ctrlrs.avgRdBWSys         3642825649.04131603                       # Average system read bandwidth in Byte/s ((Byte/Second))
system.loc_mem_ctrlrs.avgWrBWSys         3617866021.43896008                       # Average system write bandwidth in Byte/s ((Byte/Second))
system.loc_mem_ctrlrs.totGap                 99999095                       # Total gap between requests (Tick)
system.loc_mem_ctrlrs.avgGap                  8814.38                       # Average gap between requests ((Tick/Count))
system.loc_mem_ctrlrs.requestorReadBytes::writebacks       362496                       # Per-requestor bytes read from memory (Byte)
system.loc_mem_ctrlrs.requestorWriteBytes::writebacks       358400                       # Per-requestor bytes write to memory (Byte)
system.loc_mem_ctrlrs.requestorReadRate::writebacks 3624905916.403727054596                       # Per-requestor bytes read from memory rate ((Byte/Second))
system.loc_mem_ctrlrs.requestorWriteRate::writebacks 3583946527.517809391022                       # Per-requestor bytes write to memory rate ((Byte/Second))
system.loc_mem_ctrlrs.requestorReadAccesses::writebacks         5692                       # Per-requestor read serviced memory accesses (Count)
system.loc_mem_ctrlrs.requestorWriteAccesses::writebacks         5653                       # Per-requestor write serviced memory accesses (Count)
system.loc_mem_ctrlrs.requestorReadTotalLat::writebacks   3190726384                       # Per-requestor read total memory access latency (Tick)
system.loc_mem_ctrlrs.requestorWriteTotalLat::writebacks   5963391434                       # Per-requestor write total memory access latency (Tick)
system.loc_mem_ctrlrs.requestorReadAvgLat::writebacks    560563.31                       # Per-requestor read average memory access latency ((Tick/Count))
system.loc_mem_ctrlrs.requestorWriteAvgLat::writebacks   1054907.38                       # Per-requestor write average memory access latency ((Tick/Count))
system.loc_mem_ctrlrs.dram.bytesRead::writebacks       362240                       # Number of bytes read from this memory (Byte)
system.loc_mem_ctrlrs.dram.bytesRead::total       362240                       # Number of bytes read from this memory (Byte)
system.loc_mem_ctrlrs.dram.bytesWritten::writebacks       361792                       # Number of bytes written to this memory (Byte)
system.loc_mem_ctrlrs.dram.bytesWritten::total       361792                       # Number of bytes written to this memory (Byte)
system.loc_mem_ctrlrs.dram.numReads::writebacks         5660                       # Number of read requests responded to by this memory (Count)
system.loc_mem_ctrlrs.dram.numReads::total         5660                       # Number of read requests responded to by this memory (Count)
system.loc_mem_ctrlrs.dram.numWrites::writebacks         5653                       # Number of write requests responded to by this memory (Count)
system.loc_mem_ctrlrs.dram.numWrites::total         5653                       # Number of write requests responded to by this memory (Count)
system.loc_mem_ctrlrs.dram.bwRead::writebacks   3622345955                       # Total read bandwidth from this memory ((Byte/Second))
system.loc_mem_ctrlrs.dram.bwRead::total   3622345955                       # Total read bandwidth from this memory ((Byte/Second))
system.loc_mem_ctrlrs.dram.bwWrite::writebacks   3617866021                       # Write bandwidth from this memory ((Byte/Second))
system.loc_mem_ctrlrs.dram.bwWrite::total   3617866021                       # Write bandwidth from this memory ((Byte/Second))
system.loc_mem_ctrlrs.dram.bwTotal::writebacks   7240211976                       # Total bandwidth to/from this memory ((Byte/Second))
system.loc_mem_ctrlrs.dram.bwTotal::total   7240211976                       # Total bandwidth to/from this memory ((Byte/Second))
system.loc_mem_ctrlrs.dram.readBursts            5664                       # Number of DRAM read bursts (Count)
system.loc_mem_ctrlrs.dram.writeBursts           5600                       # Number of DRAM write bursts (Count)
system.loc_mem_ctrlrs.dram.perBankRdBursts::0          688                       # Per bank write bursts (Count)
system.loc_mem_ctrlrs.dram.perBankRdBursts::1          725                       # Per bank write bursts (Count)
system.loc_mem_ctrlrs.dram.perBankRdBursts::2          728                       # Per bank write bursts (Count)
system.loc_mem_ctrlrs.dram.perBankRdBursts::3          703                       # Per bank write bursts (Count)
system.loc_mem_ctrlrs.dram.perBankRdBursts::4          689                       # Per bank write bursts (Count)
system.loc_mem_ctrlrs.dram.perBankRdBursts::5          670                       # Per bank write bursts (Count)
system.loc_mem_ctrlrs.dram.perBankRdBursts::6          691                       # Per bank write bursts (Count)
system.loc_mem_ctrlrs.dram.perBankRdBursts::7          770                       # Per bank write bursts (Count)
system.loc_mem_ctrlrs.dram.perBankWrBursts::0          678                       # Per bank write bursts (Count)
system.loc_mem_ctrlrs.dram.perBankWrBursts::1          720                       # Per bank write bursts (Count)
system.loc_mem_ctrlrs.dram.perBankWrBursts::2          716                       # Per bank write bursts (Count)
system.loc_mem_ctrlrs.dram.perBankWrBursts::3          701                       # Per bank write bursts (Count)
system.loc_mem_ctrlrs.dram.perBankWrBursts::4          683                       # Per bank write bursts (Count)
system.loc_mem_ctrlrs.dram.perBankWrBursts::5          667                       # Per bank write bursts (Count)
system.loc_mem_ctrlrs.dram.perBankWrBursts::6          688                       # Per bank write bursts (Count)
system.loc_mem_ctrlrs.dram.perBankWrBursts::7          747                       # Per bank write bursts (Count)
system.loc_mem_ctrlrs.dram.totQLat         3083110384                       # Total ticks spent queuing (Tick)
system.loc_mem_ctrlrs.dram.totBusLat         22656000                       # Total ticks spent in databus transfers (Tick)
system.loc_mem_ctrlrs.dram.totMemAccLat    3190726384                       # Total ticks spent from burst creation until serviced by the DRAM (Tick)
system.loc_mem_ctrlrs.dram.avgQLat          544334.46                       # Average queueing delay per DRAM burst ((Tick/Count))
system.loc_mem_ctrlrs.dram.avgBusLat          4000.00                       # Average bus latency per DRAM burst ((Tick/Count))
system.loc_mem_ctrlrs.dram.avgMemAccLat     563334.46                       # Average memory access latency per DRAM burst ((Tick/Count))
system.loc_mem_ctrlrs.dram.readRowHits              0                       # Number of row buffer hits during reads (Count)
system.loc_mem_ctrlrs.dram.writeRowHits            47                       # Number of row buffer hits during writes (Count)
system.loc_mem_ctrlrs.dram.readRowHitRate         0.00                       # Row buffer hit rate for reads (Ratio)
system.loc_mem_ctrlrs.dram.writeRowHitRate         0.84                       # Row buffer hit rate for writes (Ratio)
system.loc_mem_ctrlrs.dram.bytesPerActivate::samples        11216                       # Bytes accessed per row activation (Byte)
system.loc_mem_ctrlrs.dram.bytesPerActivate::mean    64.268188                       # Bytes accessed per row activation (Byte)
system.loc_mem_ctrlrs.dram.bytesPerActivate::gmean    64.186164                       # Bytes accessed per row activation (Byte)
system.loc_mem_ctrlrs.dram.bytesPerActivate::stdev     4.134447                       # Bytes accessed per row activation (Byte)
system.loc_mem_ctrlrs.dram.bytesPerActivate::64-79        11169     99.58%     99.58% # Bytes accessed per row activation (Byte)
system.loc_mem_ctrlrs.dram.bytesPerActivate::128-143           47      0.42%    100.00% # Bytes accessed per row activation (Byte)
system.loc_mem_ctrlrs.dram.bytesPerActivate::total        11216                       # Bytes accessed per row activation (Byte)
system.loc_mem_ctrlrs.dram.bytesRead           362496                       # Total bytes read (Byte)
system.loc_mem_ctrlrs.dram.bytesWritten        358400                       # Total bytes written (Byte)
system.loc_mem_ctrlrs.dram.avgRdBW        3624.905916                       # Average DRAM read bandwidth in MiBytes/s ((Byte/Second))
system.loc_mem_ctrlrs.dram.avgWrBW        3583.946528                       # Average DRAM write bandwidth in MiBytes/s ((Byte/Second))
system.loc_mem_ctrlrs.dram.peakBW            16000.00                       # Theoretical peak bandwidth in MiByte/s ((Byte/Second))
system.loc_mem_ctrlrs.dram.busUtil              45.06                       # Data bus utilization in percentage (Ratio)
system.loc_mem_ctrlrs.dram.busUtilRead          22.66                       # Data bus utilization in percentage for reads (Ratio)
system.loc_mem_ctrlrs.dram.busUtilWrite         22.40                       # Data bus utilization in percentage for writes (Ratio)
system.loc_mem_ctrlrs.dram.pageHitRate           0.42                       # Row buffer hit rate, read and write combined (Ratio)
system.loc_mem_ctrlrs.dram.power_state.pwrStateResidencyTicks::UNDEFINED    100001492                       # Cumulative time (in ticks) in various power states (Tick)
system.loc_mem_ctrlrs.dram.rank0.actEnergy            0                       # Energy for activate commands per rank (pJ) (Joule)
system.loc_mem_ctrlrs.dram.rank0.preEnergy            0                       # Energy for precharge commands per rank (pJ) (Joule)
system.loc_mem_ctrlrs.dram.rank0.readEnergy            0                       # Energy for read commands per rank (pJ) (Joule)
system.loc_mem_ctrlrs.dram.rank0.writeEnergy            0                       # Energy for write commands per rank (pJ) (Joule)
system.loc_mem_ctrlrs.dram.rank0.refreshEnergy            0                       # Energy for refresh commands per rank (pJ) (Joule)
system.loc_mem_ctrlrs.dram.rank0.actBackEnergy            0                       # Energy for active background per rank (pJ) (Joule)
system.loc_mem_ctrlrs.dram.rank0.preBackEnergy            0                       # Energy for precharge background per rank (pJ) (Joule)
system.loc_mem_ctrlrs.dram.rank0.actPowerDownEnergy            0                       # Energy for active power-down per rank (pJ) (Joule)
system.loc_mem_ctrlrs.dram.rank0.prePowerDownEnergy            0                       # Energy for precharge power-down per rank (pJ) (Joule)
system.loc_mem_ctrlrs.dram.rank0.selfRefreshEnergy            0                       # Energy for self refresh per rank (pJ) (Joule)
system.loc_mem_ctrlrs.dram.rank0.totalEnergy            0                       # Total energy per rank (pJ) (Joule)
system.loc_mem_ctrlrs.dram.rank0.averagePower            0                       # Core power per rank (mW) (Watt)
system.loc_mem_ctrlrs.dram.rank0.totalIdleTime            0                       # Total Idle time Per DRAM Rank (Tick)
system.loc_mem_ctrlrs.dram.rank0.pwrStateTime::IDLE          397                       # Time in different power states (Tick)
system.loc_mem_ctrlrs.dram.rank0.pwrStateTime::REF      4000000                       # Time in different power states (Tick)
system.loc_mem_ctrlrs.dram.rank0.pwrStateTime::SREF            0                       # Time in different power states (Tick)
system.loc_mem_ctrlrs.dram.rank0.pwrStateTime::PRE_PDN            0                       # Time in different power states (Tick)
system.loc_mem_ctrlrs.dram.rank0.pwrStateTime::ACT     96001095                       # Time in different power states (Tick)
system.loc_mem_ctrlrs.dram.rank0.pwrStateTime::ACT_PDN            0                       # Time in different power states (Tick)
system.loc_mem_ctrlrs.power_state.pwrStateResidencyTicks::UNDEFINED    100001492                       # Cumulative time (in ticks) in various power states (Tick)
system.mem_ctrl.bytesRead::generators          175808                       # Number of bytes read from this memory (Byte)
system.mem_ctrl.bytesRead::total               175808                       # Number of bytes read from this memory (Byte)
system.mem_ctrl.bytesWritten::generators       194304                       # Number of bytes written to this memory (Byte)
system.mem_ctrl.bytesWritten::total            194304                       # Number of bytes written to this memory (Byte)
system.mem_ctrl.numReads::generators             2747                       # Number of read requests responded to by this memory (Count)
system.mem_ctrl.numReads::total                  2747                       # Number of read requests responded to by this memory (Count)
system.mem_ctrl.numWrites::generators            3036                       # Number of write requests responded to by this memory (Count)
system.mem_ctrl.numWrites::total                 3036                       # Number of write requests responded to by this memory (Count)
system.mem_ctrl.bwRead::generators         1758053770                       # Total read bandwidth from this memory ((Byte/Second))
system.mem_ctrl.bwRead::total              1758053770                       # Total read bandwidth from this memory ((Byte/Second))
system.mem_ctrl.bwWrite::generators        1943011010                       # Write bandwidth from this memory ((Byte/Second))
system.mem_ctrl.bwWrite::total             1943011010                       # Write bandwidth from this memory ((Byte/Second))
system.mem_ctrl.bwTotal::generators        3701064780                       # Total bandwidth to/from this memory ((Byte/Second))
system.mem_ctrl.bwTotal::total             3701064780                       # Total bandwidth to/from this memory ((Byte/Second))
system.mem_ctrl.readReqs                         2871                       # Number of read requests accepted (Count)
system.mem_ctrl.writeReqs                        3036                       # Number of write requests accepted (Count)
system.mem_ctrl.servicedByWrQ                       0                       # Number of controller read bursts serviced by the write queue (Count)
system.mem_ctrl.mergedWrBursts                      0                       # Number of controller write bursts merged with an existing one (Count)
system.mem_ctrl.numRdRetry                       2761                       # Number of times read queue was full causing retry (Count)
system.mem_ctrl.numWrRetry                       2889                       # Number of times write queue was full causing retry (Count)
system.mem_ctrl.readPktSize::0                      0                       # Read request sizes (log2) (Count)
system.mem_ctrl.readPktSize::1                      0                       # Read request sizes (log2) (Count)
system.mem_ctrl.readPktSize::2                      0                       # Read request sizes (log2) (Count)
system.mem_ctrl.readPktSize::3                      0                       # Read request sizes (log2) (Count)
system.mem_ctrl.readPktSize::4                      0                       # Read request sizes (log2) (Count)
system.mem_ctrl.readPktSize::5                      0                       # Read request sizes (log2) (Count)
system.mem_ctrl.readPktSize::6                   2871                       # Read request sizes (log2) (Count)
system.mem_ctrl.writePktSize::0                     0                       # Write request sizes (log2) (Count)
system.mem_ctrl.writePktSize::1                     0                       # Write request sizes (log2) (Count)
system.mem_ctrl.writePktSize::2                     0                       # Write request sizes (log2) (Count)
system.mem_ctrl.writePktSize::3                     0                       # Write request sizes (log2) (Count)
system.mem_ctrl.writePktSize::4                     0                       # Write request sizes (log2) (Count)
system.mem_ctrl.writePktSize::5                     0                       # Write request sizes (log2) (Count)
system.mem_ctrl.writePktSize::6                  3036                       # Write request sizes (log2) (Count)
system.mem_ctrl.bytesReadWrQ                        0                       # Total number of bytes read from write queue (Byte)
system.mem_ctrl.bytesReadSys                   183744                       # Total read bytes from the system interface side (Byte)
system.mem_ctrl.bytesWrittenSys                194304                       # Total written bytes from the system interface side (Byte)
system.mem_ctrl.avgRdBWSys               1837412585.80421972                       # Average system read bandwidth in Byte/s ((Byte/Second))
system.mem_ctrl.avgWrBWSys               1943011010.27572656                       # Average system write bandwidth in Byte/s ((Byte/Second))
system.mem_ctrl.totGap                   18446603451410425856                       # Total gap between requests (Tick)
system.mem_ctrl.avgGap                   3122837895955718.00                       # Average gap between requests ((Tick/Count))
system.mem_ctrl.avgORBLen                    255.8693                       # Average ORB length ((Count/Tick))
system.mem_ctrl.avgLocRdQLenStrt               215.79                       # Average local read queue length ((Count/Tick))
system.mem_ctrl.avgLocWrQLenStrt                 0.03                       # Average local write queue length ((Count/Tick))
system.mem_ctrl.avgFarRdQLenStrt                 0.00                       # Average far read queue length ((Count/Tick))
system.mem_ctrl.avgFarWrQLenStrt                 0.00                       # Average far write queue length ((Count/Tick))
system.mem_ctrl.avgLocRdQLenEnq                216.79                       # Average local read queue length when enqueuing ((Count/Tick))
system.mem_ctrl.avgLocWrQLenEnq                  1.09                       # Average local write queue length when enqueuing ((Count/Tick))
system.mem_ctrl.avgFarRdQLenEnq                  1.00                       # Average far read queue length when enqueuing ((Count/Tick))
system.mem_ctrl.avgFarWrQLenEnq                  0.56                       # Average far write queue length when enqueuing ((Count/Tick))
system.mem_ctrl.numWrBacks                          1                       # Total number of write backs from DRAM cache to main memory (Unspecified)
system.mem_ctrl.totNumConf                          0                       # Total number of packets conflicted on DRAM cache (Unspecified)
system.mem_ctrl.totNumORBFull                    5650                       # Total number of packets ORB full (Unspecified)
system.mem_ctrl.totNumCRBFull                       0                       # Total number of packets conflicted yet couldn't enter confBuffer (Unspecified)
system.mem_ctrl.maxNumConf                          0                       # Maximum number of packets conflicted on DRAM cache (Unspecified)
system.mem_ctrl.sentLocRdPort                    5692                       # stat (Unspecified)
system.mem_ctrl.sentLocWrPort                    5653                       # stat (Unspecified)
system.mem_ctrl.failedLocRdPort                  5776                       # stat (Unspecified)
system.mem_ctrl.failedLocWrPort                   219                       # stat (Unspecified)
system.mem_ctrl.recvdRdPort                         0                       # stat (Unspecified)
system.mem_ctrl.sentFarRdPort                    2754                       # stat (Unspecified)
system.mem_ctrl.sentFarWrPort                       1                       # stat (Unspecified)
system.mem_ctrl.failedFarRdPort                     0                       # stat (Unspecified)
system.mem_ctrl.failedFarWrPort                     0                       # stat (Unspecified)
system.mem_ctrl.totPktsServiceTime           25012158                       # stat (Unspecified)
system.mem_ctrl.totPktsORBTime               25012158                       # stat (Unspecified)
system.mem_ctrl.totTimeFarRdtoSend                  0                       # stat (Unspecified)
system.mem_ctrl.totTimeFarRdtoRecv             590959                       # stat (Unspecified)
system.mem_ctrl.totTimeFarWrtoSend                  0                       # stat (Unspecified)
system.mem_ctrl.totTimeInLocRead             24355892                       # stat (Unspecified)
system.mem_ctrl.totTimeInLocWrite               64525                       # stat (Unspecified)
system.mem_ctrl.totTimeInFarRead               590959                       # stat (Unspecified)
system.mem_ctrl.numTotHits                          0                       # stat (Unspecified)
system.mem_ctrl.numTotMisses                     5907                       # stat (Unspecified)
system.mem_ctrl.numColdMisses                    5906                       # stat (Unspecified)
system.mem_ctrl.numHotMisses                        1                       # stat (Unspecified)
system.mem_ctrl.numRdMissClean                   2870                       # stat (Unspecified)
system.mem_ctrl.numRdMissDirty                      1                       # stat (Unspecified)
system.mem_ctrl.numRdHit                            0                       # stat (Unspecified)
system.mem_ctrl.numWrMissClean                   3036                       # stat (Unspecified)
system.mem_ctrl.numWrMissDirty                      0                       # stat (Unspecified)
system.mem_ctrl.numWrHit                            0                       # stat (Unspecified)
system.mem_ctrl.numRdHitDirty                       0                       # stat (Unspecified)
system.mem_ctrl.numRdHitClean                       0                       # stat (Unspecified)
system.mem_ctrl.numWrHitDirty                       0                       # stat (Unspecified)
system.mem_ctrl.numWrHitClean                       0                       # stat (Unspecified)
system.mem_ctrl.power_state.pwrStateResidencyTicks::UNDEFINED    100001492                       # Cumulative time (in ticks) in various power states (Tick)
system.workload.inst.arm                            0                       # number of arm instructions executed (Count)
system.workload.inst.quiesce                        0                       # number of quiesce instructions executed (Count)

---------- End Simulation Statistics   ----------
