
---------- Begin Simulation Statistics ----------
simSeconds                                   0.000100                       # Number of seconds simulated (Second)
simTicks                                    100000000                       # Number of ticks simulated (Tick)
finalTick                                   100000000                       # Number of ticks from beginning of simulation (restored from checkpoints and never reset) (Tick)
simFreq                                  1000000000000                       # The number of ticks per simulated second ((Tick/Second))
hostSeconds                                      0.29                       # Real time elapsed on the host (Second)
hostTickRate                                346481210                       # The number of ticks simulated per host second (ticks/s) ((Tick/Second))
hostMemory                                    8499876                       # Number of bytes of host memory used (Byte)
system.clk_domain.clock                           200                       # Clock period in ticks (Tick)
system.clk_domain.voltage_domain.voltage            1                       # Voltage in Volts (Volt)
system.far_mem_ctrl0.avgPriority_writebacks::samples      3373.00                       # Average QoS priority value for accepted requests (Count)
system.far_mem_ctrl0.priorityMinLatency  0.000000317492                       # per QoS priority minimum request to response latency (Second)
system.far_mem_ctrl0.priorityMaxLatency  0.000064148490                       # per QoS priority maximum request to response latency (Second)
system.far_mem_ctrl0.numReadWriteTurnArounds           19                       # Number of turnarounds from READ to WRITE (Count)
system.far_mem_ctrl0.numWriteReadTurnArounds           19                       # Number of turnarounds from WRITE to READ (Count)
system.far_mem_ctrl0.numStayReadState            9467                       # Number of times bus staying in READ state (Count)
system.far_mem_ctrl0.numStayWriteState            366                       # Number of times bus staying in WRITE state (Count)
system.far_mem_ctrl0.readReqs                    2884                       # Number of read requests accepted (Count)
system.far_mem_ctrl0.writeReqs                    489                       # Number of write requests accepted (Count)
system.far_mem_ctrl0.readBursts                  2884                       # Number of controller read bursts, including those serviced by the write queue (Count)
system.far_mem_ctrl0.writeBursts                  489                       # Number of controller write bursts, including those merged in the write queue (Count)
system.far_mem_ctrl0.servicedByWrQ                  0                       # Number of controller read bursts serviced by the write queue (Count)
system.far_mem_ctrl0.mergedWrBursts                 0                       # Number of controller write bursts merged with an existing one (Count)
system.far_mem_ctrl0.neitherReadNorWriteReqs            0                       # Number of requests that are neither read nor write (Count)
system.far_mem_ctrl0.avgRdQLen                  10.66                       # Average read queue length when enqueuing ((Count/Tick))
system.far_mem_ctrl0.avgWrQLen                  54.24                       # Average write queue length when enqueuing ((Count/Tick))
system.far_mem_ctrl0.numRdRetry                     0                       # Number of times read queue was full causing retry (Count)
system.far_mem_ctrl0.numWrRetry                     0                       # Number of times write queue was full causing retry (Count)
system.far_mem_ctrl0.readPktSize::0                 0                       # Read request sizes (log2) (Count)
system.far_mem_ctrl0.readPktSize::1                 0                       # Read request sizes (log2) (Count)
system.far_mem_ctrl0.readPktSize::2                 0                       # Read request sizes (log2) (Count)
system.far_mem_ctrl0.readPktSize::3                 0                       # Read request sizes (log2) (Count)
system.far_mem_ctrl0.readPktSize::4                 0                       # Read request sizes (log2) (Count)
system.far_mem_ctrl0.readPktSize::5                 0                       # Read request sizes (log2) (Count)
system.far_mem_ctrl0.readPktSize::6              2884                       # Read request sizes (log2) (Count)
system.far_mem_ctrl0.writePktSize::0                0                       # Write request sizes (log2) (Count)
system.far_mem_ctrl0.writePktSize::1                0                       # Write request sizes (log2) (Count)
system.far_mem_ctrl0.writePktSize::2                0                       # Write request sizes (log2) (Count)
system.far_mem_ctrl0.writePktSize::3                0                       # Write request sizes (log2) (Count)
system.far_mem_ctrl0.writePktSize::4                0                       # Write request sizes (log2) (Count)
system.far_mem_ctrl0.writePktSize::5                0                       # Write request sizes (log2) (Count)
system.far_mem_ctrl0.writePktSize::6              489                       # Write request sizes (log2) (Count)
system.far_mem_ctrl0.rdQLenPdf::0                  36                       # What read queue length does an incoming req see (Count)
system.far_mem_ctrl0.rdQLenPdf::1                 101                       # What read queue length does an incoming req see (Count)
system.far_mem_ctrl0.rdQLenPdf::2                 167                       # What read queue length does an incoming req see (Count)
system.far_mem_ctrl0.rdQLenPdf::3                 234                       # What read queue length does an incoming req see (Count)
system.far_mem_ctrl0.rdQLenPdf::4                 266                       # What read queue length does an incoming req see (Count)
system.far_mem_ctrl0.rdQLenPdf::5                 281                       # What read queue length does an incoming req see (Count)
system.far_mem_ctrl0.rdQLenPdf::6                 255                       # What read queue length does an incoming req see (Count)
system.far_mem_ctrl0.rdQLenPdf::7                 242                       # What read queue length does an incoming req see (Count)
system.far_mem_ctrl0.rdQLenPdf::8                 197                       # What read queue length does an incoming req see (Count)
system.far_mem_ctrl0.rdQLenPdf::9                 180                       # What read queue length does an incoming req see (Count)
system.far_mem_ctrl0.rdQLenPdf::10                139                       # What read queue length does an incoming req see (Count)
system.far_mem_ctrl0.rdQLenPdf::11                136                       # What read queue length does an incoming req see (Count)
system.far_mem_ctrl0.rdQLenPdf::12                115                       # What read queue length does an incoming req see (Count)
system.far_mem_ctrl0.rdQLenPdf::13                112                       # What read queue length does an incoming req see (Count)
system.far_mem_ctrl0.rdQLenPdf::14                 80                       # What read queue length does an incoming req see (Count)
system.far_mem_ctrl0.rdQLenPdf::15                 64                       # What read queue length does an incoming req see (Count)
system.far_mem_ctrl0.rdQLenPdf::16                 52                       # What read queue length does an incoming req see (Count)
system.far_mem_ctrl0.rdQLenPdf::17                 37                       # What read queue length does an incoming req see (Count)
system.far_mem_ctrl0.rdQLenPdf::18                 26                       # What read queue length does an incoming req see (Count)
system.far_mem_ctrl0.rdQLenPdf::19                 26                       # What read queue length does an incoming req see (Count)
system.far_mem_ctrl0.rdQLenPdf::20                 18                       # What read queue length does an incoming req see (Count)
system.far_mem_ctrl0.rdQLenPdf::21                 12                       # What read queue length does an incoming req see (Count)
system.far_mem_ctrl0.rdQLenPdf::22                 12                       # What read queue length does an incoming req see (Count)
system.far_mem_ctrl0.rdQLenPdf::23                  4                       # What read queue length does an incoming req see (Count)
system.far_mem_ctrl0.rdQLenPdf::24                  7                       # What read queue length does an incoming req see (Count)
system.far_mem_ctrl0.rdQLenPdf::25                  6                       # What read queue length does an incoming req see (Count)
system.far_mem_ctrl0.rdQLenPdf::26                  5                       # What read queue length does an incoming req see (Count)
system.far_mem_ctrl0.rdQLenPdf::27                  6                       # What read queue length does an incoming req see (Count)
system.far_mem_ctrl0.rdQLenPdf::28                  4                       # What read queue length does an incoming req see (Count)
system.far_mem_ctrl0.rdQLenPdf::29                  5                       # What read queue length does an incoming req see (Count)
system.far_mem_ctrl0.rdQLenPdf::30                  4                       # What read queue length does an incoming req see (Count)
system.far_mem_ctrl0.rdQLenPdf::31                  7                       # What read queue length does an incoming req see (Count)
system.far_mem_ctrl0.rdQLenPdf::32                  5                       # What read queue length does an incoming req see (Count)
system.far_mem_ctrl0.rdQLenPdf::33                  5                       # What read queue length does an incoming req see (Count)
system.far_mem_ctrl0.rdQLenPdf::34                  7                       # What read queue length does an incoming req see (Count)
system.far_mem_ctrl0.rdQLenPdf::35                 10                       # What read queue length does an incoming req see (Count)
system.far_mem_ctrl0.rdQLenPdf::36                  5                       # What read queue length does an incoming req see (Count)
system.far_mem_ctrl0.rdQLenPdf::37                  3                       # What read queue length does an incoming req see (Count)
system.far_mem_ctrl0.rdQLenPdf::38                  3                       # What read queue length does an incoming req see (Count)
system.far_mem_ctrl0.rdQLenPdf::39                  3                       # What read queue length does an incoming req see (Count)
system.far_mem_ctrl0.rdQLenPdf::40                  3                       # What read queue length does an incoming req see (Count)
system.far_mem_ctrl0.rdQLenPdf::41                  3                       # What read queue length does an incoming req see (Count)
system.far_mem_ctrl0.rdQLenPdf::42                  1                       # What read queue length does an incoming req see (Count)
system.far_mem_ctrl0.rdQLenPdf::43                  0                       # What read queue length does an incoming req see (Count)
system.far_mem_ctrl0.rdQLenPdf::44                  0                       # What read queue length does an incoming req see (Count)
system.far_mem_ctrl0.rdQLenPdf::45                  0                       # What read queue length does an incoming req see (Count)
system.far_mem_ctrl0.rdQLenPdf::46                  0                       # What read queue length does an incoming req see (Count)
system.far_mem_ctrl0.rdQLenPdf::47                  0                       # What read queue length does an incoming req see (Count)
system.far_mem_ctrl0.rdQLenPdf::48                  0                       # What read queue length does an incoming req see (Count)
system.far_mem_ctrl0.rdQLenPdf::49                  0                       # What read queue length does an incoming req see (Count)
system.far_mem_ctrl0.rdQLenPdf::50                  0                       # What read queue length does an incoming req see (Count)
system.far_mem_ctrl0.rdQLenPdf::51                  0                       # What read queue length does an incoming req see (Count)
system.far_mem_ctrl0.rdQLenPdf::52                  0                       # What read queue length does an incoming req see (Count)
system.far_mem_ctrl0.rdQLenPdf::53                  0                       # What read queue length does an incoming req see (Count)
system.far_mem_ctrl0.rdQLenPdf::54                  0                       # What read queue length does an incoming req see (Count)
system.far_mem_ctrl0.rdQLenPdf::55                  0                       # What read queue length does an incoming req see (Count)
system.far_mem_ctrl0.rdQLenPdf::56                  0                       # What read queue length does an incoming req see (Count)
system.far_mem_ctrl0.rdQLenPdf::57                  0                       # What read queue length does an incoming req see (Count)
system.far_mem_ctrl0.rdQLenPdf::58                  0                       # What read queue length does an incoming req see (Count)
system.far_mem_ctrl0.rdQLenPdf::59                  0                       # What read queue length does an incoming req see (Count)
system.far_mem_ctrl0.rdQLenPdf::60                  0                       # What read queue length does an incoming req see (Count)
system.far_mem_ctrl0.rdQLenPdf::61                  0                       # What read queue length does an incoming req see (Count)
system.far_mem_ctrl0.rdQLenPdf::62                  0                       # What read queue length does an incoming req see (Count)
system.far_mem_ctrl0.rdQLenPdf::63                  0                       # What read queue length does an incoming req see (Count)
system.far_mem_ctrl0.rdQLenPdf::64                  0                       # What read queue length does an incoming req see (Count)
system.far_mem_ctrl0.rdQLenPdf::65                  0                       # What read queue length does an incoming req see (Count)
system.far_mem_ctrl0.rdQLenPdf::66                  0                       # What read queue length does an incoming req see (Count)
system.far_mem_ctrl0.rdQLenPdf::67                  0                       # What read queue length does an incoming req see (Count)
system.far_mem_ctrl0.rdQLenPdf::68                  0                       # What read queue length does an incoming req see (Count)
system.far_mem_ctrl0.rdQLenPdf::69                  0                       # What read queue length does an incoming req see (Count)
system.far_mem_ctrl0.rdQLenPdf::70                  0                       # What read queue length does an incoming req see (Count)
system.far_mem_ctrl0.rdQLenPdf::71                  0                       # What read queue length does an incoming req see (Count)
system.far_mem_ctrl0.rdQLenPdf::72                  0                       # What read queue length does an incoming req see (Count)
system.far_mem_ctrl0.rdQLenPdf::73                  0                       # What read queue length does an incoming req see (Count)
system.far_mem_ctrl0.rdQLenPdf::74                  0                       # What read queue length does an incoming req see (Count)
system.far_mem_ctrl0.rdQLenPdf::75                  0                       # What read queue length does an incoming req see (Count)
system.far_mem_ctrl0.rdQLenPdf::76                  0                       # What read queue length does an incoming req see (Count)
system.far_mem_ctrl0.rdQLenPdf::77                  0                       # What read queue length does an incoming req see (Count)
system.far_mem_ctrl0.rdQLenPdf::78                  0                       # What read queue length does an incoming req see (Count)
system.far_mem_ctrl0.rdQLenPdf::79                  0                       # What read queue length does an incoming req see (Count)
system.far_mem_ctrl0.rdQLenPdf::80                  0                       # What read queue length does an incoming req see (Count)
system.far_mem_ctrl0.rdQLenPdf::81                  0                       # What read queue length does an incoming req see (Count)
system.far_mem_ctrl0.rdQLenPdf::82                  0                       # What read queue length does an incoming req see (Count)
system.far_mem_ctrl0.rdQLenPdf::83                  0                       # What read queue length does an incoming req see (Count)
system.far_mem_ctrl0.rdQLenPdf::84                  0                       # What read queue length does an incoming req see (Count)
system.far_mem_ctrl0.rdQLenPdf::85                  0                       # What read queue length does an incoming req see (Count)
system.far_mem_ctrl0.rdQLenPdf::86                  0                       # What read queue length does an incoming req see (Count)
system.far_mem_ctrl0.rdQLenPdf::87                  0                       # What read queue length does an incoming req see (Count)
system.far_mem_ctrl0.rdQLenPdf::88                  0                       # What read queue length does an incoming req see (Count)
system.far_mem_ctrl0.rdQLenPdf::89                  0                       # What read queue length does an incoming req see (Count)
system.far_mem_ctrl0.rdQLenPdf::90                  0                       # What read queue length does an incoming req see (Count)
system.far_mem_ctrl0.rdQLenPdf::91                  0                       # What read queue length does an incoming req see (Count)
system.far_mem_ctrl0.rdQLenPdf::92                  0                       # What read queue length does an incoming req see (Count)
system.far_mem_ctrl0.rdQLenPdf::93                  0                       # What read queue length does an incoming req see (Count)
system.far_mem_ctrl0.rdQLenPdf::94                  0                       # What read queue length does an incoming req see (Count)
system.far_mem_ctrl0.rdQLenPdf::95                  0                       # What read queue length does an incoming req see (Count)
system.far_mem_ctrl0.rdQLenPdf::96                  0                       # What read queue length does an incoming req see (Count)
system.far_mem_ctrl0.rdQLenPdf::97                  0                       # What read queue length does an incoming req see (Count)
system.far_mem_ctrl0.rdQLenPdf::98                  0                       # What read queue length does an incoming req see (Count)
system.far_mem_ctrl0.rdQLenPdf::99                  0                       # What read queue length does an incoming req see (Count)
system.far_mem_ctrl0.rdQLenPdf::100                 0                       # What read queue length does an incoming req see (Count)
system.far_mem_ctrl0.rdQLenPdf::101                 0                       # What read queue length does an incoming req see (Count)
system.far_mem_ctrl0.rdQLenPdf::102                 0                       # What read queue length does an incoming req see (Count)
system.far_mem_ctrl0.rdQLenPdf::103                 0                       # What read queue length does an incoming req see (Count)
system.far_mem_ctrl0.rdQLenPdf::104                 0                       # What read queue length does an incoming req see (Count)
system.far_mem_ctrl0.rdQLenPdf::105                 0                       # What read queue length does an incoming req see (Count)
system.far_mem_ctrl0.rdQLenPdf::106                 0                       # What read queue length does an incoming req see (Count)
system.far_mem_ctrl0.rdQLenPdf::107                 0                       # What read queue length does an incoming req see (Count)
system.far_mem_ctrl0.rdQLenPdf::108                 0                       # What read queue length does an incoming req see (Count)
system.far_mem_ctrl0.rdQLenPdf::109                 0                       # What read queue length does an incoming req see (Count)
system.far_mem_ctrl0.rdQLenPdf::110                 0                       # What read queue length does an incoming req see (Count)
system.far_mem_ctrl0.rdQLenPdf::111                 0                       # What read queue length does an incoming req see (Count)
system.far_mem_ctrl0.rdQLenPdf::112                 0                       # What read queue length does an incoming req see (Count)
system.far_mem_ctrl0.rdQLenPdf::113                 0                       # What read queue length does an incoming req see (Count)
system.far_mem_ctrl0.rdQLenPdf::114                 0                       # What read queue length does an incoming req see (Count)
system.far_mem_ctrl0.rdQLenPdf::115                 0                       # What read queue length does an incoming req see (Count)
system.far_mem_ctrl0.rdQLenPdf::116                 0                       # What read queue length does an incoming req see (Count)
system.far_mem_ctrl0.rdQLenPdf::117                 0                       # What read queue length does an incoming req see (Count)
system.far_mem_ctrl0.rdQLenPdf::118                 0                       # What read queue length does an incoming req see (Count)
system.far_mem_ctrl0.rdQLenPdf::119                 0                       # What read queue length does an incoming req see (Count)
system.far_mem_ctrl0.rdQLenPdf::120                 0                       # What read queue length does an incoming req see (Count)
system.far_mem_ctrl0.rdQLenPdf::121                 0                       # What read queue length does an incoming req see (Count)
system.far_mem_ctrl0.rdQLenPdf::122                 0                       # What read queue length does an incoming req see (Count)
system.far_mem_ctrl0.rdQLenPdf::123                 0                       # What read queue length does an incoming req see (Count)
system.far_mem_ctrl0.rdQLenPdf::124                 0                       # What read queue length does an incoming req see (Count)
system.far_mem_ctrl0.rdQLenPdf::125                 0                       # What read queue length does an incoming req see (Count)
system.far_mem_ctrl0.rdQLenPdf::126                 0                       # What read queue length does an incoming req see (Count)
system.far_mem_ctrl0.rdQLenPdf::127                 0                       # What read queue length does an incoming req see (Count)
system.far_mem_ctrl0.wrQLenPdf::0                   1                       # What write queue length does an incoming req see (Count)
system.far_mem_ctrl0.wrQLenPdf::1                   1                       # What write queue length does an incoming req see (Count)
system.far_mem_ctrl0.wrQLenPdf::2                   1                       # What write queue length does an incoming req see (Count)
system.far_mem_ctrl0.wrQLenPdf::3                   1                       # What write queue length does an incoming req see (Count)
system.far_mem_ctrl0.wrQLenPdf::4                   1                       # What write queue length does an incoming req see (Count)
system.far_mem_ctrl0.wrQLenPdf::5                   1                       # What write queue length does an incoming req see (Count)
system.far_mem_ctrl0.wrQLenPdf::6                   1                       # What write queue length does an incoming req see (Count)
system.far_mem_ctrl0.wrQLenPdf::7                   1                       # What write queue length does an incoming req see (Count)
system.far_mem_ctrl0.wrQLenPdf::8                   1                       # What write queue length does an incoming req see (Count)
system.far_mem_ctrl0.wrQLenPdf::9                   1                       # What write queue length does an incoming req see (Count)
system.far_mem_ctrl0.wrQLenPdf::10                  1                       # What write queue length does an incoming req see (Count)
system.far_mem_ctrl0.wrQLenPdf::11                  1                       # What write queue length does an incoming req see (Count)
system.far_mem_ctrl0.wrQLenPdf::12                  1                       # What write queue length does an incoming req see (Count)
system.far_mem_ctrl0.wrQLenPdf::13                  1                       # What write queue length does an incoming req see (Count)
system.far_mem_ctrl0.wrQLenPdf::14                  1                       # What write queue length does an incoming req see (Count)
system.far_mem_ctrl0.wrQLenPdf::15                  1                       # What write queue length does an incoming req see (Count)
system.far_mem_ctrl0.wrQLenPdf::16                  1                       # What write queue length does an incoming req see (Count)
system.far_mem_ctrl0.wrQLenPdf::17                  1                       # What write queue length does an incoming req see (Count)
system.far_mem_ctrl0.wrQLenPdf::18                  1                       # What write queue length does an incoming req see (Count)
system.far_mem_ctrl0.wrQLenPdf::19                  1                       # What write queue length does an incoming req see (Count)
system.far_mem_ctrl0.wrQLenPdf::20                  1                       # What write queue length does an incoming req see (Count)
system.far_mem_ctrl0.wrQLenPdf::21                  1                       # What write queue length does an incoming req see (Count)
system.far_mem_ctrl0.wrQLenPdf::22                  1                       # What write queue length does an incoming req see (Count)
system.far_mem_ctrl0.wrQLenPdf::23                  1                       # What write queue length does an incoming req see (Count)
system.far_mem_ctrl0.wrQLenPdf::24                  1                       # What write queue length does an incoming req see (Count)
system.far_mem_ctrl0.wrQLenPdf::25                  1                       # What write queue length does an incoming req see (Count)
system.far_mem_ctrl0.wrQLenPdf::26                  1                       # What write queue length does an incoming req see (Count)
system.far_mem_ctrl0.wrQLenPdf::27                  1                       # What write queue length does an incoming req see (Count)
system.far_mem_ctrl0.wrQLenPdf::28                  1                       # What write queue length does an incoming req see (Count)
system.far_mem_ctrl0.wrQLenPdf::29                  1                       # What write queue length does an incoming req see (Count)
system.far_mem_ctrl0.wrQLenPdf::30                  1                       # What write queue length does an incoming req see (Count)
system.far_mem_ctrl0.wrQLenPdf::31                  1                       # What write queue length does an incoming req see (Count)
system.far_mem_ctrl0.wrQLenPdf::32                  1                       # What write queue length does an incoming req see (Count)
system.far_mem_ctrl0.wrQLenPdf::33                  1                       # What write queue length does an incoming req see (Count)
system.far_mem_ctrl0.wrQLenPdf::34                  1                       # What write queue length does an incoming req see (Count)
system.far_mem_ctrl0.wrQLenPdf::35                  1                       # What write queue length does an incoming req see (Count)
system.far_mem_ctrl0.wrQLenPdf::36                  1                       # What write queue length does an incoming req see (Count)
system.far_mem_ctrl0.wrQLenPdf::37                  1                       # What write queue length does an incoming req see (Count)
system.far_mem_ctrl0.wrQLenPdf::38                  1                       # What write queue length does an incoming req see (Count)
system.far_mem_ctrl0.wrQLenPdf::39                  1                       # What write queue length does an incoming req see (Count)
system.far_mem_ctrl0.wrQLenPdf::40                  1                       # What write queue length does an incoming req see (Count)
system.far_mem_ctrl0.wrQLenPdf::41                  1                       # What write queue length does an incoming req see (Count)
system.far_mem_ctrl0.wrQLenPdf::42                  1                       # What write queue length does an incoming req see (Count)
system.far_mem_ctrl0.wrQLenPdf::43                  1                       # What write queue length does an incoming req see (Count)
system.far_mem_ctrl0.wrQLenPdf::44                  1                       # What write queue length does an incoming req see (Count)
system.far_mem_ctrl0.wrQLenPdf::45                  1                       # What write queue length does an incoming req see (Count)
system.far_mem_ctrl0.wrQLenPdf::46                  1                       # What write queue length does an incoming req see (Count)
system.far_mem_ctrl0.wrQLenPdf::47                  6                       # What write queue length does an incoming req see (Count)
system.far_mem_ctrl0.wrQLenPdf::48                  6                       # What write queue length does an incoming req see (Count)
system.far_mem_ctrl0.wrQLenPdf::49                  7                       # What write queue length does an incoming req see (Count)
system.far_mem_ctrl0.wrQLenPdf::50                  7                       # What write queue length does an incoming req see (Count)
system.far_mem_ctrl0.wrQLenPdf::51                  8                       # What write queue length does an incoming req see (Count)
system.far_mem_ctrl0.wrQLenPdf::52                  8                       # What write queue length does an incoming req see (Count)
system.far_mem_ctrl0.wrQLenPdf::53                  9                       # What write queue length does an incoming req see (Count)
system.far_mem_ctrl0.wrQLenPdf::54                 10                       # What write queue length does an incoming req see (Count)
system.far_mem_ctrl0.wrQLenPdf::55                 10                       # What write queue length does an incoming req see (Count)
system.far_mem_ctrl0.wrQLenPdf::56                 12                       # What write queue length does an incoming req see (Count)
system.far_mem_ctrl0.wrQLenPdf::57                 12                       # What write queue length does an incoming req see (Count)
system.far_mem_ctrl0.wrQLenPdf::58                 12                       # What write queue length does an incoming req see (Count)
system.far_mem_ctrl0.wrQLenPdf::59                 12                       # What write queue length does an incoming req see (Count)
system.far_mem_ctrl0.wrQLenPdf::60                 12                       # What write queue length does an incoming req see (Count)
system.far_mem_ctrl0.wrQLenPdf::61                 12                       # What write queue length does an incoming req see (Count)
system.far_mem_ctrl0.wrQLenPdf::62                 12                       # What write queue length does an incoming req see (Count)
system.far_mem_ctrl0.wrQLenPdf::63                 12                       # What write queue length does an incoming req see (Count)
system.far_mem_ctrl0.wrQLenPdf::64                 12                       # What write queue length does an incoming req see (Count)
system.far_mem_ctrl0.wrQLenPdf::65                 14                       # What write queue length does an incoming req see (Count)
system.far_mem_ctrl0.wrQLenPdf::66                 15                       # What write queue length does an incoming req see (Count)
system.far_mem_ctrl0.wrQLenPdf::67                 13                       # What write queue length does an incoming req see (Count)
system.far_mem_ctrl0.wrQLenPdf::68                 12                       # What write queue length does an incoming req see (Count)
system.far_mem_ctrl0.wrQLenPdf::69                 10                       # What write queue length does an incoming req see (Count)
system.far_mem_ctrl0.wrQLenPdf::70                 10                       # What write queue length does an incoming req see (Count)
system.far_mem_ctrl0.wrQLenPdf::71                 10                       # What write queue length does an incoming req see (Count)
system.far_mem_ctrl0.wrQLenPdf::72                  8                       # What write queue length does an incoming req see (Count)
system.far_mem_ctrl0.wrQLenPdf::73                  8                       # What write queue length does an incoming req see (Count)
system.far_mem_ctrl0.wrQLenPdf::74                  8                       # What write queue length does an incoming req see (Count)
system.far_mem_ctrl0.wrQLenPdf::75                  8                       # What write queue length does an incoming req see (Count)
system.far_mem_ctrl0.wrQLenPdf::76                 12                       # What write queue length does an incoming req see (Count)
system.far_mem_ctrl0.wrQLenPdf::77                 10                       # What write queue length does an incoming req see (Count)
system.far_mem_ctrl0.wrQLenPdf::78                 10                       # What write queue length does an incoming req see (Count)
system.far_mem_ctrl0.wrQLenPdf::79                 10                       # What write queue length does an incoming req see (Count)
system.far_mem_ctrl0.wrQLenPdf::80                  8                       # What write queue length does an incoming req see (Count)
system.far_mem_ctrl0.wrQLenPdf::81                  7                       # What write queue length does an incoming req see (Count)
system.far_mem_ctrl0.wrQLenPdf::82                  7                       # What write queue length does an incoming req see (Count)
system.far_mem_ctrl0.wrQLenPdf::83                  7                       # What write queue length does an incoming req see (Count)
system.far_mem_ctrl0.wrQLenPdf::84                  7                       # What write queue length does an incoming req see (Count)
system.far_mem_ctrl0.wrQLenPdf::85                  6                       # What write queue length does an incoming req see (Count)
system.far_mem_ctrl0.wrQLenPdf::86                  5                       # What write queue length does an incoming req see (Count)
system.far_mem_ctrl0.wrQLenPdf::87                  5                       # What write queue length does an incoming req see (Count)
system.far_mem_ctrl0.wrQLenPdf::88                  6                       # What write queue length does an incoming req see (Count)
system.far_mem_ctrl0.wrQLenPdf::89                  5                       # What write queue length does an incoming req see (Count)
system.far_mem_ctrl0.wrQLenPdf::90                  5                       # What write queue length does an incoming req see (Count)
system.far_mem_ctrl0.wrQLenPdf::91                  4                       # What write queue length does an incoming req see (Count)
system.far_mem_ctrl0.wrQLenPdf::92                  3                       # What write queue length does an incoming req see (Count)
system.far_mem_ctrl0.wrQLenPdf::93                  3                       # What write queue length does an incoming req see (Count)
system.far_mem_ctrl0.wrQLenPdf::94                  3                       # What write queue length does an incoming req see (Count)
system.far_mem_ctrl0.wrQLenPdf::95                  3                       # What write queue length does an incoming req see (Count)
system.far_mem_ctrl0.wrQLenPdf::96                  3                       # What write queue length does an incoming req see (Count)
system.far_mem_ctrl0.wrQLenPdf::97                  2                       # What write queue length does an incoming req see (Count)
system.far_mem_ctrl0.wrQLenPdf::98                  2                       # What write queue length does an incoming req see (Count)
system.far_mem_ctrl0.wrQLenPdf::99                  3                       # What write queue length does an incoming req see (Count)
system.far_mem_ctrl0.wrQLenPdf::100                 2                       # What write queue length does an incoming req see (Count)
system.far_mem_ctrl0.wrQLenPdf::101                 2                       # What write queue length does an incoming req see (Count)
system.far_mem_ctrl0.wrQLenPdf::102                 2                       # What write queue length does an incoming req see (Count)
system.far_mem_ctrl0.wrQLenPdf::103                 2                       # What write queue length does an incoming req see (Count)
system.far_mem_ctrl0.wrQLenPdf::104                 1                       # What write queue length does an incoming req see (Count)
system.far_mem_ctrl0.wrQLenPdf::105                 1                       # What write queue length does an incoming req see (Count)
system.far_mem_ctrl0.wrQLenPdf::106                 1                       # What write queue length does an incoming req see (Count)
system.far_mem_ctrl0.wrQLenPdf::107                 0                       # What write queue length does an incoming req see (Count)
system.far_mem_ctrl0.wrQLenPdf::108                 0                       # What write queue length does an incoming req see (Count)
system.far_mem_ctrl0.wrQLenPdf::109                 0                       # What write queue length does an incoming req see (Count)
system.far_mem_ctrl0.wrQLenPdf::110                 0                       # What write queue length does an incoming req see (Count)
system.far_mem_ctrl0.wrQLenPdf::111                 0                       # What write queue length does an incoming req see (Count)
system.far_mem_ctrl0.wrQLenPdf::112                 0                       # What write queue length does an incoming req see (Count)
system.far_mem_ctrl0.wrQLenPdf::113                 0                       # What write queue length does an incoming req see (Count)
system.far_mem_ctrl0.wrQLenPdf::114                 0                       # What write queue length does an incoming req see (Count)
system.far_mem_ctrl0.wrQLenPdf::115                 0                       # What write queue length does an incoming req see (Count)
system.far_mem_ctrl0.wrQLenPdf::116                 0                       # What write queue length does an incoming req see (Count)
system.far_mem_ctrl0.wrQLenPdf::117                 0                       # What write queue length does an incoming req see (Count)
system.far_mem_ctrl0.wrQLenPdf::118                 0                       # What write queue length does an incoming req see (Count)
system.far_mem_ctrl0.wrQLenPdf::119                 0                       # What write queue length does an incoming req see (Count)
system.far_mem_ctrl0.wrQLenPdf::120                 0                       # What write queue length does an incoming req see (Count)
system.far_mem_ctrl0.wrQLenPdf::121                 0                       # What write queue length does an incoming req see (Count)
system.far_mem_ctrl0.wrQLenPdf::122                 0                       # What write queue length does an incoming req see (Count)
system.far_mem_ctrl0.wrQLenPdf::123                 0                       # What write queue length does an incoming req see (Count)
system.far_mem_ctrl0.wrQLenPdf::124                 0                       # What write queue length does an incoming req see (Count)
system.far_mem_ctrl0.wrQLenPdf::125                 0                       # What write queue length does an incoming req see (Count)
system.far_mem_ctrl0.wrQLenPdf::126                 0                       # What write queue length does an incoming req see (Count)
system.far_mem_ctrl0.wrQLenPdf::127                 0                       # What write queue length does an incoming req see (Count)
system.far_mem_ctrl0.rdPerTurnAround::samples           19                       # Reads before turning the bus around for writes (Count)
system.far_mem_ctrl0.rdPerTurnAround::mean   149.052632                       # Reads before turning the bus around for writes (Count)
system.far_mem_ctrl0.rdPerTurnAround::gmean   109.685385                       # Reads before turning the bus around for writes (Count)
system.far_mem_ctrl0.rdPerTurnAround::stdev   211.555213                       # Reads before turning the bus around for writes (Count)
system.far_mem_ctrl0.rdPerTurnAround::40-47            1      5.26%      5.26% # Reads before turning the bus around for writes (Count)
system.far_mem_ctrl0.rdPerTurnAround::56-63            1      5.26%     10.53% # Reads before turning the bus around for writes (Count)
system.far_mem_ctrl0.rdPerTurnAround::72-79            2     10.53%     21.05% # Reads before turning the bus around for writes (Count)
system.far_mem_ctrl0.rdPerTurnAround::80-87            1      5.26%     26.32% # Reads before turning the bus around for writes (Count)
system.far_mem_ctrl0.rdPerTurnAround::88-95            3     15.79%     42.11% # Reads before turning the bus around for writes (Count)
system.far_mem_ctrl0.rdPerTurnAround::96-103            3     15.79%     57.89% # Reads before turning the bus around for writes (Count)
system.far_mem_ctrl0.rdPerTurnAround::104-111            3     15.79%     73.68% # Reads before turning the bus around for writes (Count)
system.far_mem_ctrl0.rdPerTurnAround::120-127            1      5.26%     78.95% # Reads before turning the bus around for writes (Count)
system.far_mem_ctrl0.rdPerTurnAround::128-135            2     10.53%     89.47% # Reads before turning the bus around for writes (Count)
system.far_mem_ctrl0.rdPerTurnAround::168-175            1      5.26%     94.74% # Reads before turning the bus around for writes (Count)
system.far_mem_ctrl0.rdPerTurnAround::1008-1015            1      5.26%    100.00% # Reads before turning the bus around for writes (Count)
system.far_mem_ctrl0.rdPerTurnAround::total           19                       # Reads before turning the bus around for writes (Count)
system.far_mem_ctrl0.wrPerTurnAround::samples           19                       # Writes before turning the bus around for reads (Count)
system.far_mem_ctrl0.wrPerTurnAround::mean    20.263158                       # Writes before turning the bus around for reads (Count)
system.far_mem_ctrl0.wrPerTurnAround::gmean    19.162712                       # Writes before turning the bus around for reads (Count)
system.far_mem_ctrl0.wrPerTurnAround::stdev     8.490793                       # Writes before turning the bus around for reads (Count)
system.far_mem_ctrl0.wrPerTurnAround::16           12     63.16%     63.16% # Writes before turning the bus around for reads (Count)
system.far_mem_ctrl0.wrPerTurnAround::19            1      5.26%     68.42% # Writes before turning the bus around for reads (Count)
system.far_mem_ctrl0.wrPerTurnAround::20            2     10.53%     78.95% # Writes before turning the bus around for reads (Count)
system.far_mem_ctrl0.wrPerTurnAround::25            1      5.26%     84.21% # Writes before turning the bus around for reads (Count)
system.far_mem_ctrl0.wrPerTurnAround::29            1      5.26%     89.47% # Writes before turning the bus around for reads (Count)
system.far_mem_ctrl0.wrPerTurnAround::30            1      5.26%     94.74% # Writes before turning the bus around for reads (Count)
system.far_mem_ctrl0.wrPerTurnAround::50            1      5.26%    100.00% # Writes before turning the bus around for reads (Count)
system.far_mem_ctrl0.wrPerTurnAround::total           19                       # Writes before turning the bus around for reads (Count)
system.far_mem_ctrl0.bytesReadWrQ                   0                       # Total number of bytes read from write queue (Byte)
system.far_mem_ctrl0.bytesReadSys              184576                       # Total read bytes from the system interface side (Byte)
system.far_mem_ctrl0.bytesWrittenSys            31296                       # Total written bytes from the system interface side (Byte)
system.far_mem_ctrl0.avgRdBWSys          1845760000.00000000                       # Average system read bandwidth in Byte/s ((Byte/Second))
system.far_mem_ctrl0.avgWrBWSys          312960000.00000000                       # Average system write bandwidth in Byte/s ((Byte/Second))
system.far_mem_ctrl0.totGap                  99916000                       # Total gap between requests (Tick)
system.far_mem_ctrl0.avgGap                  29622.29                       # Average gap between requests ((Tick/Count))
system.far_mem_ctrl0.requestorReadBytes::writebacks       184192                       # Per-requestor bytes read from memory (Byte)
system.far_mem_ctrl0.requestorWriteBytes::writebacks        24640                       # Per-requestor bytes write to memory (Byte)
system.far_mem_ctrl0.requestorReadRate::writebacks 1841920000.000000000000                       # Per-requestor bytes read from memory rate ((Byte/Second))
system.far_mem_ctrl0.requestorWriteRate::writebacks 246400000.000000000000                       # Per-requestor bytes write to memory rate ((Byte/Second))
system.far_mem_ctrl0.requestorReadAccesses::writebacks         2884                       # Per-requestor read serviced memory accesses (Count)
system.far_mem_ctrl0.requestorWriteAccesses::writebacks          489                       # Per-requestor write serviced memory accesses (Count)
system.far_mem_ctrl0.requestorReadTotalLat::writebacks    880263368                       # Per-requestor read total memory access latency (Tick)
system.far_mem_ctrl0.requestorWriteTotalLat::writebacks   4639554798                       # Per-requestor write total memory access latency (Tick)
system.far_mem_ctrl0.requestorReadAvgLat::writebacks    305223.08                       # Per-requestor read average memory access latency ((Tick/Count))
system.far_mem_ctrl0.requestorWriteAvgLat::writebacks   9487842.12                       # Per-requestor write average memory access latency ((Tick/Count))
system.far_mem_ctrl0.dram.bytesRead::writebacks       184128                       # Number of bytes read from this memory (Byte)
system.far_mem_ctrl0.dram.bytesRead::total       184128                       # Number of bytes read from this memory (Byte)
system.far_mem_ctrl0.dram.bytesWritten::writebacks        31296                       # Number of bytes written to this memory (Byte)
system.far_mem_ctrl0.dram.bytesWritten::total        31296                       # Number of bytes written to this memory (Byte)
system.far_mem_ctrl0.dram.numReads::writebacks         2877                       # Number of read requests responded to by this memory (Count)
system.far_mem_ctrl0.dram.numReads::total         2877                       # Number of read requests responded to by this memory (Count)
system.far_mem_ctrl0.dram.numWrites::writebacks          489                       # Number of write requests responded to by this memory (Count)
system.far_mem_ctrl0.dram.numWrites::total          489                       # Number of write requests responded to by this memory (Count)
system.far_mem_ctrl0.dram.bwRead::writebacks   1841280000                       # Total read bandwidth from this memory ((Byte/Second))
system.far_mem_ctrl0.dram.bwRead::total    1841280000                       # Total read bandwidth from this memory ((Byte/Second))
system.far_mem_ctrl0.dram.bwWrite::writebacks    312960000                       # Write bandwidth from this memory ((Byte/Second))
system.far_mem_ctrl0.dram.bwWrite::total    312960000                       # Write bandwidth from this memory ((Byte/Second))
system.far_mem_ctrl0.dram.bwTotal::writebacks   2154240000                       # Total bandwidth to/from this memory ((Byte/Second))
system.far_mem_ctrl0.dram.bwTotal::total   2154240000                       # Total bandwidth to/from this memory ((Byte/Second))
system.far_mem_ctrl0.dram.readBursts             2878                       # Number of NVM read bursts (Count)
system.far_mem_ctrl0.dram.writeBursts             385                       # Number of NVM write bursts (Count)
system.far_mem_ctrl0.dram.perBankRdBursts::0          201                       # Per bank write bursts (Count)
system.far_mem_ctrl0.dram.perBankRdBursts::1          205                       # Per bank write bursts (Count)
system.far_mem_ctrl0.dram.perBankRdBursts::2          185                       # Per bank write bursts (Count)
system.far_mem_ctrl0.dram.perBankRdBursts::3          169                       # Per bank write bursts (Count)
system.far_mem_ctrl0.dram.perBankRdBursts::4          183                       # Per bank write bursts (Count)
system.far_mem_ctrl0.dram.perBankRdBursts::5          166                       # Per bank write bursts (Count)
system.far_mem_ctrl0.dram.perBankRdBursts::6          182                       # Per bank write bursts (Count)
system.far_mem_ctrl0.dram.perBankRdBursts::7          168                       # Per bank write bursts (Count)
system.far_mem_ctrl0.dram.perBankRdBursts::8          180                       # Per bank write bursts (Count)
system.far_mem_ctrl0.dram.perBankRdBursts::9          200                       # Per bank write bursts (Count)
system.far_mem_ctrl0.dram.perBankRdBursts::10          177                       # Per bank write bursts (Count)
system.far_mem_ctrl0.dram.perBankRdBursts::11          179                       # Per bank write bursts (Count)
system.far_mem_ctrl0.dram.perBankRdBursts::12          173                       # Per bank write bursts (Count)
system.far_mem_ctrl0.dram.perBankRdBursts::13          170                       # Per bank write bursts (Count)
system.far_mem_ctrl0.dram.perBankRdBursts::14          153                       # Per bank write bursts (Count)
system.far_mem_ctrl0.dram.perBankRdBursts::15          187                       # Per bank write bursts (Count)
system.far_mem_ctrl0.dram.perBankWrBursts::0           34                       # Per bank write bursts (Count)
system.far_mem_ctrl0.dram.perBankWrBursts::1           23                       # Per bank write bursts (Count)
system.far_mem_ctrl0.dram.perBankWrBursts::2           17                       # Per bank write bursts (Count)
system.far_mem_ctrl0.dram.perBankWrBursts::3           21                       # Per bank write bursts (Count)
system.far_mem_ctrl0.dram.perBankWrBursts::4           23                       # Per bank write bursts (Count)
system.far_mem_ctrl0.dram.perBankWrBursts::5           28                       # Per bank write bursts (Count)
system.far_mem_ctrl0.dram.perBankWrBursts::6           24                       # Per bank write bursts (Count)
system.far_mem_ctrl0.dram.perBankWrBursts::7           28                       # Per bank write bursts (Count)
system.far_mem_ctrl0.dram.perBankWrBursts::8           26                       # Per bank write bursts (Count)
system.far_mem_ctrl0.dram.perBankWrBursts::9           28                       # Per bank write bursts (Count)
system.far_mem_ctrl0.dram.perBankWrBursts::10           22                       # Per bank write bursts (Count)
system.far_mem_ctrl0.dram.perBankWrBursts::11           17                       # Per bank write bursts (Count)
system.far_mem_ctrl0.dram.perBankWrBursts::12           23                       # Per bank write bursts (Count)
system.far_mem_ctrl0.dram.perBankWrBursts::13           22                       # Per bank write bursts (Count)
system.far_mem_ctrl0.dram.perBankWrBursts::14           21                       # Per bank write bursts (Count)
system.far_mem_ctrl0.dram.perBankWrBursts::15           28                       # Per bank write bursts (Count)
system.far_mem_ctrl0.dram.totQLat           829921392                       # Total ticks spent queuing (Tick)
system.far_mem_ctrl0.dram.totBusLat           9589496                       # Total ticks spent in databus transfers (Tick)
system.far_mem_ctrl0.dram.totMemAccLat      880263368                       # Total ticks spent from burst creation until serviced by the NVM (Tick)
system.far_mem_ctrl0.dram.avgQLat           288367.41                       # Average queueing delay per NVM burst ((Tick/Count))
system.far_mem_ctrl0.dram.avgBusLat           3332.00                       # Average bus latency per NVM burst ((Tick/Count))
system.far_mem_ctrl0.dram.avgMemAccLat      305859.41                       # Average memory access latency per NVM burst ((Tick/Count))
system.far_mem_ctrl0.dram.avgRdBW             1841.92                       # Average DRAM read bandwidth in MiBytes/s ((Byte/Second))
system.far_mem_ctrl0.dram.avgWrBW              246.40                       # Average DRAM write bandwidth in MiBytes/s ((Byte/Second))
system.far_mem_ctrl0.dram.peakBW             19207.00                       # Theoretical peak bandwidth in MiByte/s ((Byte/Second))
system.far_mem_ctrl0.dram.busUtil               10.87                       # NVM Data bus utilization in percentage (Ratio)
system.far_mem_ctrl0.dram.busUtilRead            9.59                       # NVM Data bus read utilization in percentage (Ratio)
system.far_mem_ctrl0.dram.busUtilWrite           1.28                       # NVM Data bus write utilization in percentage (Ratio)
system.far_mem_ctrl0.dram.pendingReads::samples         2878                       # Reads issued to NVM for which data has not been transferred (Count)
system.far_mem_ctrl0.dram.pendingReads::mean     8.122655                       # Reads issued to NVM for which data has not been transferred (Count)
system.far_mem_ctrl0.dram.pendingReads::stdev     6.204814                       # Reads issued to NVM for which data has not been transferred (Count)
system.far_mem_ctrl0.dram.pendingReads::0           50      1.74%      1.74% # Reads issued to NVM for which data has not been transferred (Count)
system.far_mem_ctrl0.dram.pendingReads::1          118      4.10%      5.84% # Reads issued to NVM for which data has not been transferred (Count)
system.far_mem_ctrl0.dram.pendingReads::2          174      6.05%     11.88% # Reads issued to NVM for which data has not been transferred (Count)
system.far_mem_ctrl0.dram.pendingReads::3          251      8.72%     20.60% # Reads issued to NVM for which data has not been transferred (Count)
system.far_mem_ctrl0.dram.pendingReads::4          261      9.07%     29.67% # Reads issued to NVM for which data has not been transferred (Count)
system.far_mem_ctrl0.dram.pendingReads::5          281      9.76%     39.44% # Reads issued to NVM for which data has not been transferred (Count)
system.far_mem_ctrl0.dram.pendingReads::6          246      8.55%     47.98% # Reads issued to NVM for which data has not been transferred (Count)
system.far_mem_ctrl0.dram.pendingReads::7          242      8.41%     56.39% # Reads issued to NVM for which data has not been transferred (Count)
system.far_mem_ctrl0.dram.pendingReads::8          201      6.98%     63.38% # Reads issued to NVM for which data has not been transferred (Count)
system.far_mem_ctrl0.dram.pendingReads::9          164      5.70%     69.08% # Reads issued to NVM for which data has not been transferred (Count)
system.far_mem_ctrl0.dram.pendingReads::10          152      5.28%     74.36% # Reads issued to NVM for which data has not been transferred (Count)
system.far_mem_ctrl0.dram.pendingReads::11          136      4.73%     79.08% # Reads issued to NVM for which data has not been transferred (Count)
system.far_mem_ctrl0.dram.pendingReads::12          112      3.89%     82.97% # Reads issued to NVM for which data has not been transferred (Count)
system.far_mem_ctrl0.dram.pendingReads::13           91      3.16%     86.14% # Reads issued to NVM for which data has not been transferred (Count)
system.far_mem_ctrl0.dram.pendingReads::14           73      2.54%     88.67% # Reads issued to NVM for which data has not been transferred (Count)
system.far_mem_ctrl0.dram.pendingReads::15           65      2.26%     90.93% # Reads issued to NVM for which data has not been transferred (Count)
system.far_mem_ctrl0.dram.pendingReads::16           47      1.63%     92.56% # Reads issued to NVM for which data has not been transferred (Count)
system.far_mem_ctrl0.dram.pendingReads::17           37      1.29%     93.85% # Reads issued to NVM for which data has not been transferred (Count)
system.far_mem_ctrl0.dram.pendingReads::18           29      1.01%     94.86% # Reads issued to NVM for which data has not been transferred (Count)
system.far_mem_ctrl0.dram.pendingReads::19           20      0.69%     95.55% # Reads issued to NVM for which data has not been transferred (Count)
system.far_mem_ctrl0.dram.pendingReads::20           13      0.45%     96.00% # Reads issued to NVM for which data has not been transferred (Count)
system.far_mem_ctrl0.dram.pendingReads::21           13      0.45%     96.46% # Reads issued to NVM for which data has not been transferred (Count)
system.far_mem_ctrl0.dram.pendingReads::22            6      0.21%     96.66% # Reads issued to NVM for which data has not been transferred (Count)
system.far_mem_ctrl0.dram.pendingReads::23            6      0.21%     96.87% # Reads issued to NVM for which data has not been transferred (Count)
system.far_mem_ctrl0.dram.pendingReads::24            6      0.21%     97.08% # Reads issued to NVM for which data has not been transferred (Count)
system.far_mem_ctrl0.dram.pendingReads::25            7      0.24%     97.32% # Reads issued to NVM for which data has not been transferred (Count)
system.far_mem_ctrl0.dram.pendingReads::26            5      0.17%     97.50% # Reads issued to NVM for which data has not been transferred (Count)
system.far_mem_ctrl0.dram.pendingReads::27            5      0.17%     97.67% # Reads issued to NVM for which data has not been transferred (Count)
system.far_mem_ctrl0.dram.pendingReads::28            7      0.24%     97.92% # Reads issued to NVM for which data has not been transferred (Count)
system.far_mem_ctrl0.dram.pendingReads::29            6      0.21%     98.12% # Reads issued to NVM for which data has not been transferred (Count)
system.far_mem_ctrl0.dram.pendingReads::30            7      0.24%     98.37% # Reads issued to NVM for which data has not been transferred (Count)
system.far_mem_ctrl0.dram.pendingReads::31            3      0.10%     98.47% # Reads issued to NVM for which data has not been transferred (Count)
system.far_mem_ctrl0.dram.pendingReads::32            5      0.17%     98.64% # Reads issued to NVM for which data has not been transferred (Count)
system.far_mem_ctrl0.dram.pendingReads::33            6      0.21%     98.85% # Reads issued to NVM for which data has not been transferred (Count)
system.far_mem_ctrl0.dram.pendingReads::34            7      0.24%     99.10% # Reads issued to NVM for which data has not been transferred (Count)
system.far_mem_ctrl0.dram.pendingReads::35            6      0.21%     99.31% # Reads issued to NVM for which data has not been transferred (Count)
system.far_mem_ctrl0.dram.pendingReads::36            4      0.14%     99.44% # Reads issued to NVM for which data has not been transferred (Count)
system.far_mem_ctrl0.dram.pendingReads::37            3      0.10%     99.55% # Reads issued to NVM for which data has not been transferred (Count)
system.far_mem_ctrl0.dram.pendingReads::38            3      0.10%     99.65% # Reads issued to NVM for which data has not been transferred (Count)
system.far_mem_ctrl0.dram.pendingReads::39            6      0.21%     99.86% # Reads issued to NVM for which data has not been transferred (Count)
system.far_mem_ctrl0.dram.pendingReads::40            2      0.07%     99.93% # Reads issued to NVM for which data has not been transferred (Count)
system.far_mem_ctrl0.dram.pendingReads::41            1      0.03%     99.97% # Reads issued to NVM for which data has not been transferred (Count)
system.far_mem_ctrl0.dram.pendingReads::42            1      0.03%    100.00% # Reads issued to NVM for which data has not been transferred (Count)
system.far_mem_ctrl0.dram.pendingReads::total         2878                       # Reads issued to NVM for which data has not been transferred (Count)
system.far_mem_ctrl0.dram.pendingWrites::samples          385                       # Number of outstanding writes to NVM (Count)
system.far_mem_ctrl0.dram.pendingWrites::mean    12.316883                       # Number of outstanding writes to NVM (Count)
system.far_mem_ctrl0.dram.pendingWrites::gmean     8.965903                       # Number of outstanding writes to NVM (Count)
system.far_mem_ctrl0.dram.pendingWrites::stdev     9.439409                       # Number of outstanding writes to NVM (Count)
system.far_mem_ctrl0.dram.pendingWrites::1           19      4.94%      4.94% # Number of outstanding writes to NVM (Count)
system.far_mem_ctrl0.dram.pendingWrites::2           19      4.94%      9.87% # Number of outstanding writes to NVM (Count)
system.far_mem_ctrl0.dram.pendingWrites::3           19      4.94%     14.81% # Number of outstanding writes to NVM (Count)
system.far_mem_ctrl0.dram.pendingWrites::4           19      4.94%     19.74% # Number of outstanding writes to NVM (Count)
system.far_mem_ctrl0.dram.pendingWrites::5           19      4.94%     24.68% # Number of outstanding writes to NVM (Count)
system.far_mem_ctrl0.dram.pendingWrites::6           19      4.94%     29.61% # Number of outstanding writes to NVM (Count)
system.far_mem_ctrl0.dram.pendingWrites::7           19      4.94%     34.55% # Number of outstanding writes to NVM (Count)
system.far_mem_ctrl0.dram.pendingWrites::8           19      4.94%     39.48% # Number of outstanding writes to NVM (Count)
system.far_mem_ctrl0.dram.pendingWrites::9           19      4.94%     44.42% # Number of outstanding writes to NVM (Count)
system.far_mem_ctrl0.dram.pendingWrites::10           19      4.94%     49.35% # Number of outstanding writes to NVM (Count)
system.far_mem_ctrl0.dram.pendingWrites::11           19      4.94%     54.29% # Number of outstanding writes to NVM (Count)
system.far_mem_ctrl0.dram.pendingWrites::12           19      4.94%     59.22% # Number of outstanding writes to NVM (Count)
system.far_mem_ctrl0.dram.pendingWrites::13           19      4.94%     64.16% # Number of outstanding writes to NVM (Count)
system.far_mem_ctrl0.dram.pendingWrites::14           19      4.94%     69.09% # Number of outstanding writes to NVM (Count)
system.far_mem_ctrl0.dram.pendingWrites::15           19      4.94%     74.03% # Number of outstanding writes to NVM (Count)
system.far_mem_ctrl0.dram.pendingWrites::16           19      4.94%     78.96% # Number of outstanding writes to NVM (Count)
system.far_mem_ctrl0.dram.pendingWrites::17            7      1.82%     80.78% # Number of outstanding writes to NVM (Count)
system.far_mem_ctrl0.dram.pendingWrites::18            7      1.82%     82.60% # Number of outstanding writes to NVM (Count)
system.far_mem_ctrl0.dram.pendingWrites::19            7      1.82%     84.42% # Number of outstanding writes to NVM (Count)
system.far_mem_ctrl0.dram.pendingWrites::20            6      1.56%     85.97% # Number of outstanding writes to NVM (Count)
system.far_mem_ctrl0.dram.pendingWrites::21            4      1.04%     87.01% # Number of outstanding writes to NVM (Count)
system.far_mem_ctrl0.dram.pendingWrites::22            4      1.04%     88.05% # Number of outstanding writes to NVM (Count)
system.far_mem_ctrl0.dram.pendingWrites::23            4      1.04%     89.09% # Number of outstanding writes to NVM (Count)
system.far_mem_ctrl0.dram.pendingWrites::24            4      1.04%     90.13% # Number of outstanding writes to NVM (Count)
system.far_mem_ctrl0.dram.pendingWrites::25            4      1.04%     91.17% # Number of outstanding writes to NVM (Count)
system.far_mem_ctrl0.dram.pendingWrites::26            3      0.78%     91.95% # Number of outstanding writes to NVM (Count)
system.far_mem_ctrl0.dram.pendingWrites::27            3      0.78%     92.73% # Number of outstanding writes to NVM (Count)
system.far_mem_ctrl0.dram.pendingWrites::28            3      0.78%     93.51% # Number of outstanding writes to NVM (Count)
system.far_mem_ctrl0.dram.pendingWrites::29            3      0.78%     94.29% # Number of outstanding writes to NVM (Count)
system.far_mem_ctrl0.dram.pendingWrites::30            2      0.52%     94.81% # Number of outstanding writes to NVM (Count)
system.far_mem_ctrl0.dram.pendingWrites::31            1      0.26%     95.06% # Number of outstanding writes to NVM (Count)
system.far_mem_ctrl0.dram.pendingWrites::32            1      0.26%     95.32% # Number of outstanding writes to NVM (Count)
system.far_mem_ctrl0.dram.pendingWrites::33            1      0.26%     95.58% # Number of outstanding writes to NVM (Count)
system.far_mem_ctrl0.dram.pendingWrites::34            1      0.26%     95.84% # Number of outstanding writes to NVM (Count)
system.far_mem_ctrl0.dram.pendingWrites::35            1      0.26%     96.10% # Number of outstanding writes to NVM (Count)
system.far_mem_ctrl0.dram.pendingWrites::36            1      0.26%     96.36% # Number of outstanding writes to NVM (Count)
system.far_mem_ctrl0.dram.pendingWrites::37            1      0.26%     96.62% # Number of outstanding writes to NVM (Count)
system.far_mem_ctrl0.dram.pendingWrites::38            1      0.26%     96.88% # Number of outstanding writes to NVM (Count)
system.far_mem_ctrl0.dram.pendingWrites::39            1      0.26%     97.14% # Number of outstanding writes to NVM (Count)
system.far_mem_ctrl0.dram.pendingWrites::40            1      0.26%     97.40% # Number of outstanding writes to NVM (Count)
system.far_mem_ctrl0.dram.pendingWrites::41            1      0.26%     97.66% # Number of outstanding writes to NVM (Count)
system.far_mem_ctrl0.dram.pendingWrites::42            1      0.26%     97.92% # Number of outstanding writes to NVM (Count)
system.far_mem_ctrl0.dram.pendingWrites::43            1      0.26%     98.18% # Number of outstanding writes to NVM (Count)
system.far_mem_ctrl0.dram.pendingWrites::44            1      0.26%     98.44% # Number of outstanding writes to NVM (Count)
system.far_mem_ctrl0.dram.pendingWrites::45            1      0.26%     98.70% # Number of outstanding writes to NVM (Count)
system.far_mem_ctrl0.dram.pendingWrites::46            1      0.26%     98.96% # Number of outstanding writes to NVM (Count)
system.far_mem_ctrl0.dram.pendingWrites::47            1      0.26%     99.22% # Number of outstanding writes to NVM (Count)
system.far_mem_ctrl0.dram.pendingWrites::48            1      0.26%     99.48% # Number of outstanding writes to NVM (Count)
system.far_mem_ctrl0.dram.pendingWrites::49            1      0.26%     99.74% # Number of outstanding writes to NVM (Count)
system.far_mem_ctrl0.dram.pendingWrites::50            1      0.26%    100.00% # Number of outstanding writes to NVM (Count)
system.far_mem_ctrl0.dram.pendingWrites::total          385                       # Number of outstanding writes to NVM (Count)
system.far_mem_ctrl0.dram.bytesPerBank::samples         3269                       # Bytes read within a bank before loading new bank (Byte)
system.far_mem_ctrl0.dram.bytesPerBank::mean           64                       # Bytes read within a bank before loading new bank (Byte)
system.far_mem_ctrl0.dram.bytesPerBank::gmean    64.000000                       # Bytes read within a bank before loading new bank (Byte)
system.far_mem_ctrl0.dram.bytesPerBank::64         3269    100.00%    100.00% # Bytes read within a bank before loading new bank (Byte)
system.far_mem_ctrl0.dram.bytesPerBank::total         3269                       # Bytes read within a bank before loading new bank (Byte)
system.far_mem_ctrl0.dram.power_state.pwrStateResidencyTicks::UNDEFINED    100000000                       # Cumulative time (in ticks) in various power states (Tick)
system.far_mem_ctrl0.power_state.pwrStateResidencyTicks::UNDEFINED    100000000                       # Cumulative time (in ticks) in various power states (Tick)
system.far_mem_ctrl1.avgPriority_writebacks::samples      3200.00                       # Average QoS priority value for accepted requests (Count)
system.far_mem_ctrl1.priorityMinLatency  0.000000317492                       # per QoS priority minimum request to response latency (Second)
system.far_mem_ctrl1.priorityMaxLatency  0.000058215610                       # per QoS priority maximum request to response latency (Second)
system.far_mem_ctrl1.numReadWriteTurnArounds           20                       # Number of turnarounds from READ to WRITE (Count)
system.far_mem_ctrl1.numWriteReadTurnArounds           20                       # Number of turnarounds from WRITE to READ (Count)
system.far_mem_ctrl1.numStayReadState            8947                       # Number of times bus staying in READ state (Count)
system.far_mem_ctrl1.numStayWriteState            334                       # Number of times bus staying in WRITE state (Count)
system.far_mem_ctrl1.readReqs                    2740                       # Number of read requests accepted (Count)
system.far_mem_ctrl1.writeReqs                    460                       # Number of write requests accepted (Count)
system.far_mem_ctrl1.readBursts                  2740                       # Number of controller read bursts, including those serviced by the write queue (Count)
system.far_mem_ctrl1.writeBursts                  460                       # Number of controller write bursts, including those merged in the write queue (Count)
system.far_mem_ctrl1.servicedByWrQ                  0                       # Number of controller read bursts serviced by the write queue (Count)
system.far_mem_ctrl1.mergedWrBursts                 0                       # Number of controller write bursts merged with an existing one (Count)
system.far_mem_ctrl1.neitherReadNorWriteReqs            0                       # Number of requests that are neither read nor write (Count)
system.far_mem_ctrl1.avgRdQLen                   9.49                       # Average read queue length when enqueuing ((Count/Tick))
system.far_mem_ctrl1.avgWrQLen                  52.75                       # Average write queue length when enqueuing ((Count/Tick))
system.far_mem_ctrl1.numRdRetry                     0                       # Number of times read queue was full causing retry (Count)
system.far_mem_ctrl1.numWrRetry                     0                       # Number of times write queue was full causing retry (Count)
system.far_mem_ctrl1.readPktSize::0                 0                       # Read request sizes (log2) (Count)
system.far_mem_ctrl1.readPktSize::1                 0                       # Read request sizes (log2) (Count)
system.far_mem_ctrl1.readPktSize::2                 0                       # Read request sizes (log2) (Count)
system.far_mem_ctrl1.readPktSize::3                 0                       # Read request sizes (log2) (Count)
system.far_mem_ctrl1.readPktSize::4                 0                       # Read request sizes (log2) (Count)
system.far_mem_ctrl1.readPktSize::5                 0                       # Read request sizes (log2) (Count)
system.far_mem_ctrl1.readPktSize::6              2740                       # Read request sizes (log2) (Count)
system.far_mem_ctrl1.writePktSize::0                0                       # Write request sizes (log2) (Count)
system.far_mem_ctrl1.writePktSize::1                0                       # Write request sizes (log2) (Count)
system.far_mem_ctrl1.writePktSize::2                0                       # Write request sizes (log2) (Count)
system.far_mem_ctrl1.writePktSize::3                0                       # Write request sizes (log2) (Count)
system.far_mem_ctrl1.writePktSize::4                0                       # Write request sizes (log2) (Count)
system.far_mem_ctrl1.writePktSize::5                0                       # Write request sizes (log2) (Count)
system.far_mem_ctrl1.writePktSize::6              460                       # Write request sizes (log2) (Count)
system.far_mem_ctrl1.rdQLenPdf::0                  41                       # What read queue length does an incoming req see (Count)
system.far_mem_ctrl1.rdQLenPdf::1                 110                       # What read queue length does an incoming req see (Count)
system.far_mem_ctrl1.rdQLenPdf::2                 172                       # What read queue length does an incoming req see (Count)
system.far_mem_ctrl1.rdQLenPdf::3                 231                       # What read queue length does an incoming req see (Count)
system.far_mem_ctrl1.rdQLenPdf::4                 256                       # What read queue length does an incoming req see (Count)
system.far_mem_ctrl1.rdQLenPdf::5                 257                       # What read queue length does an incoming req see (Count)
system.far_mem_ctrl1.rdQLenPdf::6                 271                       # What read queue length does an incoming req see (Count)
system.far_mem_ctrl1.rdQLenPdf::7                 256                       # What read queue length does an incoming req see (Count)
system.far_mem_ctrl1.rdQLenPdf::8                 237                       # What read queue length does an incoming req see (Count)
system.far_mem_ctrl1.rdQLenPdf::9                 198                       # What read queue length does an incoming req see (Count)
system.far_mem_ctrl1.rdQLenPdf::10                149                       # What read queue length does an incoming req see (Count)
system.far_mem_ctrl1.rdQLenPdf::11                119                       # What read queue length does an incoming req see (Count)
system.far_mem_ctrl1.rdQLenPdf::12                103                       # What read queue length does an incoming req see (Count)
system.far_mem_ctrl1.rdQLenPdf::13                 95                       # What read queue length does an incoming req see (Count)
system.far_mem_ctrl1.rdQLenPdf::14                 80                       # What read queue length does an incoming req see (Count)
system.far_mem_ctrl1.rdQLenPdf::15                 64                       # What read queue length does an incoming req see (Count)
system.far_mem_ctrl1.rdQLenPdf::16                 34                       # What read queue length does an incoming req see (Count)
system.far_mem_ctrl1.rdQLenPdf::17                 25                       # What read queue length does an incoming req see (Count)
system.far_mem_ctrl1.rdQLenPdf::18                 20                       # What read queue length does an incoming req see (Count)
system.far_mem_ctrl1.rdQLenPdf::19                 11                       # What read queue length does an incoming req see (Count)
system.far_mem_ctrl1.rdQLenPdf::20                  4                       # What read queue length does an incoming req see (Count)
system.far_mem_ctrl1.rdQLenPdf::21                  2                       # What read queue length does an incoming req see (Count)
system.far_mem_ctrl1.rdQLenPdf::22                  1                       # What read queue length does an incoming req see (Count)
system.far_mem_ctrl1.rdQLenPdf::23                  1                       # What read queue length does an incoming req see (Count)
system.far_mem_ctrl1.rdQLenPdf::24                  1                       # What read queue length does an incoming req see (Count)
system.far_mem_ctrl1.rdQLenPdf::25                  1                       # What read queue length does an incoming req see (Count)
system.far_mem_ctrl1.rdQLenPdf::26                  1                       # What read queue length does an incoming req see (Count)
system.far_mem_ctrl1.rdQLenPdf::27                  0                       # What read queue length does an incoming req see (Count)
system.far_mem_ctrl1.rdQLenPdf::28                  0                       # What read queue length does an incoming req see (Count)
system.far_mem_ctrl1.rdQLenPdf::29                  0                       # What read queue length does an incoming req see (Count)
system.far_mem_ctrl1.rdQLenPdf::30                  0                       # What read queue length does an incoming req see (Count)
system.far_mem_ctrl1.rdQLenPdf::31                  0                       # What read queue length does an incoming req see (Count)
system.far_mem_ctrl1.rdQLenPdf::32                  0                       # What read queue length does an incoming req see (Count)
system.far_mem_ctrl1.rdQLenPdf::33                  0                       # What read queue length does an incoming req see (Count)
system.far_mem_ctrl1.rdQLenPdf::34                  0                       # What read queue length does an incoming req see (Count)
system.far_mem_ctrl1.rdQLenPdf::35                  0                       # What read queue length does an incoming req see (Count)
system.far_mem_ctrl1.rdQLenPdf::36                  0                       # What read queue length does an incoming req see (Count)
system.far_mem_ctrl1.rdQLenPdf::37                  0                       # What read queue length does an incoming req see (Count)
system.far_mem_ctrl1.rdQLenPdf::38                  0                       # What read queue length does an incoming req see (Count)
system.far_mem_ctrl1.rdQLenPdf::39                  0                       # What read queue length does an incoming req see (Count)
system.far_mem_ctrl1.rdQLenPdf::40                  0                       # What read queue length does an incoming req see (Count)
system.far_mem_ctrl1.rdQLenPdf::41                  0                       # What read queue length does an incoming req see (Count)
system.far_mem_ctrl1.rdQLenPdf::42                  0                       # What read queue length does an incoming req see (Count)
system.far_mem_ctrl1.rdQLenPdf::43                  0                       # What read queue length does an incoming req see (Count)
system.far_mem_ctrl1.rdQLenPdf::44                  0                       # What read queue length does an incoming req see (Count)
system.far_mem_ctrl1.rdQLenPdf::45                  0                       # What read queue length does an incoming req see (Count)
system.far_mem_ctrl1.rdQLenPdf::46                  0                       # What read queue length does an incoming req see (Count)
system.far_mem_ctrl1.rdQLenPdf::47                  0                       # What read queue length does an incoming req see (Count)
system.far_mem_ctrl1.rdQLenPdf::48                  0                       # What read queue length does an incoming req see (Count)
system.far_mem_ctrl1.rdQLenPdf::49                  0                       # What read queue length does an incoming req see (Count)
system.far_mem_ctrl1.rdQLenPdf::50                  0                       # What read queue length does an incoming req see (Count)
system.far_mem_ctrl1.rdQLenPdf::51                  0                       # What read queue length does an incoming req see (Count)
system.far_mem_ctrl1.rdQLenPdf::52                  0                       # What read queue length does an incoming req see (Count)
system.far_mem_ctrl1.rdQLenPdf::53                  0                       # What read queue length does an incoming req see (Count)
system.far_mem_ctrl1.rdQLenPdf::54                  0                       # What read queue length does an incoming req see (Count)
system.far_mem_ctrl1.rdQLenPdf::55                  0                       # What read queue length does an incoming req see (Count)
system.far_mem_ctrl1.rdQLenPdf::56                  0                       # What read queue length does an incoming req see (Count)
system.far_mem_ctrl1.rdQLenPdf::57                  0                       # What read queue length does an incoming req see (Count)
system.far_mem_ctrl1.rdQLenPdf::58                  0                       # What read queue length does an incoming req see (Count)
[...]
system.mem_ctrl0.avgLocWrQLenStrt                3.37                       # Average local write queue length ((Count/Tick))
system.mem_ctrl0.avgFarRdQLenStrt                0.00                       # Average far read queue length ((Count/Tick))
system.mem_ctrl0.avgFarWrQLenStrt                0.00                       # Average far write queue length ((Count/Tick))
system.mem_ctrl0.avgLocRdQLenEnq               172.58                       # Average local read queue length when enqueuing ((Count/Tick))
system.mem_ctrl0.avgLocWrQLenEnq                 5.06                       # Average local write queue length when enqueuing ((Count/Tick))
system.mem_ctrl0.avgFarRdQLenEnq                 1.00                       # Average far read queue length when enqueuing ((Count/Tick))
system.mem_ctrl0.avgFarWrQLenEnq                 0.98                       # Average far write queue length when enqueuing ((Count/Tick))
system.mem_ctrl0.numWrBacks                       489                       # Total number of write backs from DRAM cache to main memory (Unspecified)
system.mem_ctrl0.totNumConf                        69                       # Total number of packets conflicted on DRAM cache (Unspecified)
system.mem_ctrl0.totNumORBFull                   1018                       # Total number of packets ORB full (Unspecified)
system.mem_ctrl0.totNumCRBFull                      0                       # Total number of packets conflicted yet couldn't enter confBuffer (Unspecified)
system.mem_ctrl0.maxNumConf                         5                       # Maximum number of packets conflicted on DRAM cache (Unspecified)
system.mem_ctrl0.sentLocRdPort                   5766                       # stat (Unspecified)
system.mem_ctrl0.sentLocWrPort                   5704                       # stat (Unspecified)
system.mem_ctrl0.failedLocRdPort                 8674                       # stat (Unspecified)
system.mem_ctrl0.failedLocWrPort                 6140                       # stat (Unspecified)
system.mem_ctrl0.recvdRdPort                        0                       # stat (Unspecified)
system.mem_ctrl0.sentFarRdPort                   2884                       # stat (Unspecified)
system.mem_ctrl0.sentFarWrPort                    489                       # stat (Unspecified)
system.mem_ctrl0.failedFarRdPort                    0                       # stat (Unspecified)
system.mem_ctrl0.failedFarWrPort                    0                       # stat (Unspecified)
system.mem_ctrl0.totPktsServiceTime          21299619                       # stat (Unspecified)
system.mem_ctrl0.totPktsORBTime              21160898                       # stat (Unspecified)
system.mem_ctrl0.totTimeFarRdtoSend                 0                       # stat (Unspecified)
system.mem_ctrl0.totTimeFarRdtoRecv            931548                       # stat (Unspecified)
system.mem_ctrl0.totTimeFarWrtoSend                 0                       # stat (Unspecified)
system.mem_ctrl0.totTimeInLocRead            19793652                       # stat (Unspecified)
system.mem_ctrl0.totTimeInLocWrite             433830                       # stat (Unspecified)
system.mem_ctrl0.totTimeInFarRead              931548                       # stat (Unspecified)
system.mem_ctrl0.numTotHits                         1                       # stat (Unspecified)
system.mem_ctrl0.numTotMisses                    5959                       # stat (Unspecified)
system.mem_ctrl0.numColdMisses                   4955                       # stat (Unspecified)
system.mem_ctrl0.numHotMisses                    1004                       # stat (Unspecified)
system.mem_ctrl0.numRdMissClean                  2726                       # stat (Unspecified)
system.mem_ctrl0.numRdMissDirty                   258                       # stat (Unspecified)
system.mem_ctrl0.numRdHit                           0                       # stat (Unspecified)
system.mem_ctrl0.numWrMissClean                  2709                       # stat (Unspecified)
system.mem_ctrl0.numWrMissDirty                   266                       # stat (Unspecified)
system.mem_ctrl0.numWrHit                           1                       # stat (Unspecified)
system.mem_ctrl0.numRdHitDirty                      0                       # stat (Unspecified)
system.mem_ctrl0.numRdHitClean                      0                       # stat (Unspecified)
system.mem_ctrl0.numWrHitDirty                      0                       # stat (Unspecified)
system.mem_ctrl0.numWrHitClean                      1                       # stat (Unspecified)
system.mem_ctrl0.power_state.pwrStateResidencyTicks::UNDEFINED    100000000                       # Cumulative time (in ticks) in various power states (Tick)
system.mem_ctrl1.bytesRead::generators0         90752                       # Number of bytes read from this memory (Byte)
system.mem_ctrl1.bytesRead::generators1         84224                       # Number of bytes read from this memory (Byte)
system.mem_ctrl1.bytesRead::total              174976                       # Number of bytes read from this memory (Byte)
system.mem_ctrl1.bytesWritten::generators0       100736                       # Number of bytes written to this memory (Byte)
system.mem_ctrl1.bytesWritten::generators1        98432                       # Number of bytes written to this memory (Byte)
system.mem_ctrl1.bytesWritten::total           199168                       # Number of bytes written to this memory (Byte)
system.mem_ctrl1.numReads::generators0           1418                       # Number of read requests responded to by this memory (Count)
system.mem_ctrl1.numReads::generators1           1316                       # Number of read requests responded to by this memory (Count)
system.mem_ctrl1.numReads::total                 2734                       # Number of read requests responded to by this memory (Count)
system.mem_ctrl1.numWrites::generators0          1574                       # Number of write requests responded to by this memory (Count)
system.mem_ctrl1.numWrites::generators1          1538                       # Number of write requests responded to by this memory (Count)
system.mem_ctrl1.numWrites::total                3112                       # Number of write requests responded to by this memory (Count)
system.mem_ctrl1.bwRead::generators0        907520000                       # Total read bandwidth from this memory ((Byte/Second))
system.mem_ctrl1.bwRead::generators1        842240000                       # Total read bandwidth from this memory ((Byte/Second))
system.mem_ctrl1.bwRead::total             1749760000                       # Total read bandwidth from this memory ((Byte/Second))
system.mem_ctrl1.bwWrite::generators0      1007360000                       # Write bandwidth from this memory ((Byte/Second))
system.mem_ctrl1.bwWrite::generators1       984320000                       # Write bandwidth from this memory ((Byte/Second))
system.mem_ctrl1.bwWrite::total            1991680000                       # Write bandwidth from this memory ((Byte/Second))
system.mem_ctrl1.bwTotal::generators0      1914880000                       # Total bandwidth to/from this memory ((Byte/Second))
system.mem_ctrl1.bwTotal::generators1      1826560000                       # Total bandwidth to/from this memory ((Byte/Second))
system.mem_ctrl1.bwTotal::total            3741440000                       # Total bandwidth to/from this memory ((Byte/Second))
system.mem_ctrl1.readReqs                        2857                       # Number of read requests accepted (Count)
system.mem_ctrl1.writeReqs                       3112                       # Number of write requests accepted (Count)
system.mem_ctrl1.servicedByWrQ                      0                       # Number of controller read bursts serviced by the write queue (Count)
system.mem_ctrl1.mergedWrBursts                     0                       # Number of controller write bursts merged with an existing one (Count)
system.mem_ctrl1.numRdRetry                      2231                       # Number of times read queue was full causing retry (Count)
system.mem_ctrl1.numWrRetry                      2393                       # Number of times write queue was full causing retry (Count)
system.mem_ctrl1.readPktSize::0                     0                       # Read request sizes (log2) (Count)
system.mem_ctrl1.readPktSize::1                     0                       # Read request sizes (log2) (Count)
system.mem_ctrl1.readPktSize::2                     0                       # Read request sizes (log2) (Count)
system.mem_ctrl1.readPktSize::3                     0                       # Read request sizes (log2) (Count)
system.mem_ctrl1.readPktSize::4                     0                       # Read request sizes (log2) (Count)
system.mem_ctrl1.readPktSize::5                     0                       # Read request sizes (log2) (Count)
system.mem_ctrl1.readPktSize::6                  2857                       # Read request sizes (log2) (Count)
system.mem_ctrl1.writePktSize::0                    0                       # Write request sizes (log2) (Count)
system.mem_ctrl1.writePktSize::1                    0                       # Write request sizes (log2) (Count)
system.mem_ctrl1.writePktSize::2                    0                       # Write request sizes (log2) (Count)
system.mem_ctrl1.writePktSize::3                    0                       # Write request sizes (log2) (Count)
system.mem_ctrl1.writePktSize::4                    0                       # Write request sizes (log2) (Count)
system.mem_ctrl1.writePktSize::5                    0                       # Write request sizes (log2) (Count)
system.mem_ctrl1.writePktSize::6                 3112                       # Write request sizes (log2) (Count)
system.mem_ctrl1.bytesReadWrQ                       0                       # Total number of bytes read from write queue (Byte)
system.mem_ctrl1.bytesReadSys                  182848                       # Total read bytes from the system interface side (Byte)
system.mem_ctrl1.bytesWrittenSys               199168                       # Total written bytes from the system interface side (Byte)
system.mem_ctrl1.avgRdBWSys              1828480000.00000000                       # Average system read bandwidth in Byte/s ((Byte/Second))
system.mem_ctrl1.avgWrBWSys              1991680000.00000000                       # Average system write bandwidth in Byte/s ((Byte/Second))
system.mem_ctrl1.totGap                  18446603931835820032                       # Total gap between requests (Tick)
system.mem_ctrl1.avgGap                  3090401060786701.50                       # Average gap between requests ((Tick/Count))
system.mem_ctrl1.avgORBLen                   253.7626                       # Average ORB length ((Count/Tick))
system.mem_ctrl1.avgLocRdQLenStrt              210.67                       # Average local read queue length ((Count/Tick))
system.mem_ctrl1.avgLocWrQLenStrt                0.67                       # Average local write queue length ((Count/Tick))
system.mem_ctrl1.avgFarRdQLenStrt                0.00                       # Average far read queue length ((Count/Tick))
system.mem_ctrl1.avgFarWrQLenStrt                0.00                       # Average far write queue length ((Count/Tick))
system.mem_ctrl1.avgLocRdQLenEnq               211.67                       # Average local read queue length when enqueuing ((Count/Tick))
system.mem_ctrl1.avgLocWrQLenEnq                 2.13                       # Average local write queue length when enqueuing ((Count/Tick))
system.mem_ctrl1.avgFarRdQLenEnq                 1.00                       # Average far read queue length when enqueuing ((Count/Tick))
system.mem_ctrl1.avgFarWrQLenEnq                 0.93                       # Average far write queue length when enqueuing ((Count/Tick))
system.mem_ctrl1.numWrBacks                       460                       # Total number of write backs from DRAM cache to main memory (Unspecified)
system.mem_ctrl1.totNumConf                        96                       # Total number of packets conflicted on DRAM cache (Unspecified)
system.mem_ctrl1.totNumORBFull                   4624                       # Total number of packets ORB full (Unspecified)
system.mem_ctrl1.totNumCRBFull                      0                       # Total number of packets conflicted yet couldn't enter confBuffer (Unspecified)
system.mem_ctrl1.maxNumConf                         7                       # Maximum number of packets conflicted on DRAM cache (Unspecified)
system.mem_ctrl1.sentLocRdPort                   5765                       # stat (Unspecified)
system.mem_ctrl1.sentLocWrPort                   5727                       # stat (Unspecified)
system.mem_ctrl1.failedLocRdPort                 7926                       # stat (Unspecified)
system.mem_ctrl1.failedLocWrPort                 4654                       # stat (Unspecified)
system.mem_ctrl1.recvdRdPort                        0                       # stat (Unspecified)
system.mem_ctrl1.sentFarRdPort                   2740                       # stat (Unspecified)
system.mem_ctrl1.sentFarWrPort                    460                       # stat (Unspecified)
system.mem_ctrl1.failedFarRdPort                    0                       # stat (Unspecified)
system.mem_ctrl1.failedFarWrPort                    0                       # stat (Unspecified)
system.mem_ctrl1.totPktsServiceTime          25017724                       # stat (Unspecified)
system.mem_ctrl1.totPktsORBTime              24798425                       # stat (Unspecified)
system.mem_ctrl1.totTimeFarRdtoSend                 0                       # stat (Unspecified)
system.mem_ctrl1.totTimeFarRdtoRecv            817128                       # stat (Unspecified)
system.mem_ctrl1.totTimeFarWrtoSend                 0                       # stat (Unspecified)
system.mem_ctrl1.totTimeInLocRead            23818695                       # stat (Unspecified)
system.mem_ctrl1.totTimeInLocWrite             161262                       # stat (Unspecified)
system.mem_ctrl1.totTimeInFarRead              817128                       # stat (Unspecified)
system.mem_ctrl1.numTotHits                         0                       # stat (Unspecified)
system.mem_ctrl1.numTotMisses                    5969                       # stat (Unspecified)
system.mem_ctrl1.numColdMisses                   5015                       # stat (Unspecified)
system.mem_ctrl1.numHotMisses                     954                       # stat (Unspecified)
system.mem_ctrl1.numRdMissClean                  2601                       # stat (Unspecified)
system.mem_ctrl1.numRdMissDirty                   256                       # stat (Unspecified)
system.mem_ctrl1.numRdHit                           0                       # stat (Unspecified)
system.mem_ctrl1.numWrMissClean                  2864                       # stat (Unspecified)
system.mem_ctrl1.numWrMissDirty                   248                       # stat (Unspecified)
system.mem_ctrl1.numWrHit                           0                       # stat (Unspecified)
system.mem_ctrl1.numRdHitDirty                      0                       # stat (Unspecified)
system.mem_ctrl1.numRdHitClean                      0                       # stat (Unspecified)
system.mem_ctrl1.numWrHitDirty                      0                       # stat (Unspecified)
system.mem_ctrl1.numWrHitClean                      0                       # stat (Unspecified)
system.mem_ctrl1.power_state.pwrStateResidencyTicks::UNDEFINED    100000000                       # Cumulative time (in ticks) in various power states (Tick)
system.membus.transDist::ReadReq                 5843                       # Transaction distribution (Count)
system.membus.transDist::ReadResp                5608                       # Transaction distribution (Count)
system.membus.transDist::WriteReq                6092                       # Transaction distribution (Count)
system.membus.transDist::WriteResp               6084                       # Transaction distribution (Count)
system.membus.pktCount_system.generators0.port::system.mem_ctrl0.port         5749                       # Packet count per connected requestor and responder (Count)
system.membus.pktCount_system.generators0.port::system.mem_ctrl1.port         6042                       # Packet count per connected requestor and responder (Count)
system.membus.pktCount_system.generators0.port::total        11791                       # Packet count per connected requestor and responder (Count)
system.membus.pktCount_system.generators1.port::system.mem_ctrl0.port         6064                       # Packet count per connected requestor and responder (Count)
system.membus.pktCount_system.generators1.port::system.mem_ctrl1.port         5772                       # Packet count per connected requestor and responder (Count)
system.membus.pktCount_system.generators1.port::total        11836                       # Packet count per connected requestor and responder (Count)
system.membus.pktCount::total                   23627                       # Packet count per connected requestor and responder (Count)
system.membus.pktSize_system.generators0.port::system.mem_ctrl0.port       182272                       # Cumulative packet size per connected requestor and responder (Byte)
system.membus.pktSize_system.generators0.port::system.mem_ctrl1.port       191488                       # Cumulative packet size per connected requestor and responder (Byte)
system.membus.pktSize_system.generators0.port::total       373760                       # Cumulative packet size per connected requestor and responder (Byte)
system.membus.pktSize_system.generators1.port::system.mem_ctrl0.port       192384                       # Cumulative packet size per connected requestor and responder (Byte)
system.membus.pktSize_system.generators1.port::system.mem_ctrl1.port       182656                       # Cumulative packet size per connected requestor and responder (Byte)
system.membus.pktSize_system.generators1.port::total       375040                       # Cumulative packet size per connected requestor and responder (Byte)
system.membus.pktSize::total                   748800                       # Cumulative packet size per connected requestor and responder (Byte)
system.membus.power_state.pwrStateResidencyTicks::UNDEFINED    100000000                       # Cumulative time (in ticks) in various power states (Tick)
system.membus.reqLayer0.occupancy             2413099                       # Layer occupancy (ticks) (Tick)
system.membus.reqLayer0.utilization               0.0                       # Layer utilization (Ratio)
system.membus.reqLayer1.occupancy             3151868                       # Layer occupancy (ticks) (Tick)
system.membus.reqLayer1.utilization               0.0                       # Layer utilization (Ratio)
system.membus.respLayer0.occupancy            1959173                       # Layer occupancy (ticks) (Tick)
system.membus.respLayer0.utilization              0.0                       # Layer utilization (Ratio)
system.membus.respLayer1.occupancy            1957706                       # Layer occupancy (ticks) (Tick)
system.membus.respLayer1.utilization              0.0                       # Layer utilization (Ratio)
system.workload.inst.arm                            0                       # number of arm instructions executed (Count)
system.workload.inst.quiesce                        0                       # number of quiesce instructions executed (Count)

---------- End Simulation Statistics   ----------
