
---------- Begin Simulation Statistics ----------
simSeconds                                   0.000100                       # Number of seconds simulated (Second)
simTicks                                    100025200                       # Number of ticks simulated (Tick)
finalTick                                   100025200                       # Number of ticks from beginning of simulation (restored from checkpoints and never reset) (Tick)
simFreq                                  1000000000000                       # The number of ticks per simulated second ((Tick/Second))
hostSeconds                                      0.50                       # Real time elapsed on the host (Second)
hostTickRate                                201830165                       # The number of ticks simulated per host second (ticks/s) ((Tick/Second))
hostMemory                                    8534180                       # Number of bytes of host memory used (Byte)
system.clk_domain.clock                           200                       # Clock period in ticks (Tick)
system.clk_domain.voltage_domain.voltage            1                       # Voltage in Volts (Volt)
system.far_mem_ctrl0.avgPriority_writebacks::samples      6537.00                       # Average QoS priority value for accepted requests (Count)
system.far_mem_ctrl0.priorityMinLatency  0.000000317492                       # per QoS priority minimum request to response latency (Second)
system.far_mem_ctrl0.priorityMaxLatency  0.000029501756                       # per QoS priority maximum request to response latency (Second)
system.far_mem_ctrl0.numReadWriteTurnArounds           82                       # Number of turnarounds from READ to WRITE (Count)
system.far_mem_ctrl0.numWriteReadTurnArounds           82                       # Number of turnarounds from WRITE to READ (Count)
system.far_mem_ctrl0.numStayReadState           16851                       # Number of times bus staying in READ state (Count)
system.far_mem_ctrl0.numStayWriteState           1230                       # Number of times bus staying in WRITE state (Count)
system.far_mem_ctrl0.readReqs                    5119                       # Number of read requests accepted (Count)
system.far_mem_ctrl0.writeReqs                   1418                       # Number of write requests accepted (Count)
system.far_mem_ctrl0.readBursts                  5119                       # Number of controller read bursts, including those serviced by the write queue (Count)
system.far_mem_ctrl0.writeBursts                 1418                       # Number of controller write bursts, including those merged in the write queue (Count)
system.far_mem_ctrl0.servicedByWrQ                  0                       # Number of controller read bursts serviced by the write queue (Count)
system.far_mem_ctrl0.mergedWrBursts                 0                       # Number of controller write bursts merged with an existing one (Count)
system.far_mem_ctrl0.neitherReadNorWriteReqs            0                       # Number of requests that are neither read nor write (Count)
system.far_mem_ctrl0.avgRdQLen                  93.79                       # Average read queue length when enqueuing ((Count/Tick))
system.far_mem_ctrl0.avgWrQLen                  91.41                       # Average write queue length when enqueuing ((Count/Tick))
system.far_mem_ctrl0.numRdRetry                  2285                       # Number of times read queue was full causing retry (Count)
system.far_mem_ctrl0.numWrRetry                     0                       # Number of times write queue was full causing retry (Count)
system.far_mem_ctrl0.readPktSize::0                 0                       # Read request sizes (log2) (Count)
system.far_mem_ctrl0.readPktSize::1                 0                       # Read request sizes (log2) (Count)
system.far_mem_ctrl0.readPktSize::2                 0                       # Read request sizes (log2) (Count)
system.far_mem_ctrl0.readPktSize::3                 0                       # Read request sizes (log2) (Count)
system.far_mem_ctrl0.readPktSize::4                 0                       # Read request sizes (log2) (Count)
system.far_mem_ctrl0.readPktSize::5                 0                       # Read request sizes (log2) (Count)
system.far_mem_ctrl0.readPktSize::6              5119                       # Read request sizes (log2) (Count)
system.far_mem_ctrl0.writePktSize::0                0                       # Write request sizes (log2) (Count)
system.far_mem_ctrl0.writePktSize::1                0                       # Write request sizes (log2) (Count)
system.far_mem_ctrl0.writePktSize::2                0                       # Write request sizes (log2) (Count)
system.far_mem_ctrl0.writePktSize::3                0                       # Write request sizes (log2) (Count)
system.far_mem_ctrl0.writePktSize::4                0                       # Write request sizes (log2) (Count)
system.far_mem_ctrl0.writePktSize::5                0                       # Write request sizes (log2) (Count)
system.far_mem_ctrl0.writePktSize::6             1418                       # Write request sizes (log2) (Count)
system.far_mem_ctrl0.rdQLenPdf::0                   1                       # What read queue length does an incoming req see (Count)
system.far_mem_ctrl0.rdQLenPdf::1                   1                       # What read queue length does an incoming req see (Count)
system.far_mem_ctrl0.rdQLenPdf::2                   1                       # What read queue length does an incoming req see (Count)
system.far_mem_ctrl0.rdQLenPdf::3                   1                       # What read queue length does an incoming req see (Count)
system.far_mem_ctrl0.rdQLenPdf::4                   1                       # What read queue length does an incoming req see (Count)
system.far_mem_ctrl0.rdQLenPdf::5                   1                       # What read queue length does an incoming req see (Count)
system.far_mem_ctrl0.rdQLenPdf::6                   1                       # What read queue length does an incoming req see (Count)
system.far_mem_ctrl0.rdQLenPdf::7                   1                       # What read queue length does an incoming req see (Count)
system.far_mem_ctrl0.rdQLenPdf::8                   1                       # What read queue length does an incoming req see (Count)
system.far_mem_ctrl0.rdQLenPdf::9                   1                       # What read queue length does an incoming req see (Count)
system.far_mem_ctrl0.rdQLenPdf::10                  1                       # What read queue length does an incoming req see (Count)
system.far_mem_ctrl0.rdQLenPdf::11                  1                       # What read queue length does an incoming req see (Count)
system.far_mem_ctrl0.rdQLenPdf::12                  1                       # What read queue length does an incoming req see (Count)
system.far_mem_ctrl0.rdQLenPdf::13                  1                       # What read queue length does an incoming req see (Count)
system.far_mem_ctrl0.rdQLenPdf::14                  2                       # What read queue length does an incoming req see (Count)
system.far_mem_ctrl0.rdQLenPdf::15                  5                       # What read queue length does an incoming req see (Count)
system.far_mem_ctrl0.rdQLenPdf::16                 10                       # What read queue length does an incoming req see (Count)
system.far_mem_ctrl0.rdQLenPdf::17                 13                       # What read queue length does an incoming req see (Count)
system.far_mem_ctrl0.rdQLenPdf::18                 18                       # What read queue length does an incoming req see (Count)
system.far_mem_ctrl0.rdQLenPdf::19                 31                       # What read queue length does an incoming req see (Count)
system.far_mem_ctrl0.rdQLenPdf::20                 31                       # What read queue length does an incoming req see (Count)
system.far_mem_ctrl0.rdQLenPdf::21                 52                       # What read queue length does an incoming req see (Count)
system.far_mem_ctrl0.rdQLenPdf::22                 60                       # What read queue length does an incoming req see (Count)
system.far_mem_ctrl0.rdQLenPdf::23                 45                       # What read queue length does an incoming req see (Count)
system.far_mem_ctrl0.rdQLenPdf::24                 67                       # What read queue length does an incoming req see (Count)
system.far_mem_ctrl0.rdQLenPdf::25                 66                       # What read queue length does an incoming req see (Count)
system.far_mem_ctrl0.rdQLenPdf::26                 80                       # What read queue length does an incoming req see (Count)
system.far_mem_ctrl0.rdQLenPdf::27                 83                       # What read queue length does an incoming req see (Count)
system.far_mem_ctrl0.rdQLenPdf::28                 68                       # What read queue length does an incoming req see (Count)
system.far_mem_ctrl0.rdQLenPdf::29                 61                       # What read queue length does an incoming req see (Count)
system.far_mem_ctrl0.rdQLenPdf::30                 60                       # What read queue length does an incoming req see (Count)
system.far_mem_ctrl0.rdQLenPdf::31                 46                       # What read queue length does an incoming req see (Count)
system.far_mem_ctrl0.rdQLenPdf::32                 72                       # What read queue length does an incoming req see (Count)
system.far_mem_ctrl0.rdQLenPdf::33                 56                       # What read queue length does an incoming req see (Count)
system.far_mem_ctrl0.rdQLenPdf::34                 64                       # What read queue length does an incoming req see (Count)
system.far_mem_ctrl0.rdQLenPdf::35                 68                       # What read queue length does an incoming req see (Count)
system.far_mem_ctrl0.rdQLenPdf::36                 51                       # What read queue length does an incoming req see (Count)
system.far_mem_ctrl0.rdQLenPdf::37                 59                       # What read queue length does an incoming req see (Count)
system.far_mem_ctrl0.rdQLenPdf::38                 55                       # What read queue length does an incoming req see (Count)
system.far_mem_ctrl0.rdQLenPdf::39                 54                       # What read queue length does an incoming req see (Count)
system.far_mem_ctrl0.rdQLenPdf::40                 51                       # What read queue length does an incoming req see (Count)
system.far_mem_ctrl0.rdQLenPdf::41                 39                       # What read queue length does an incoming req see (Count)
system.far_mem_ctrl0.rdQLenPdf::42                 17                       # What read queue length does an incoming req see (Count)
system.far_mem_ctrl0.rdQLenPdf::43                  6                       # What read queue length does an incoming req see (Count)
system.far_mem_ctrl0.rdQLenPdf::44                  6                       # What read queue length does an incoming req see (Count)
system.far_mem_ctrl0.rdQLenPdf::45                  8                       # What read queue length does an incoming req see (Count)
system.far_mem_ctrl0.rdQLenPdf::46                  9                       # What read queue length does an incoming req see (Count)
system.far_mem_ctrl0.rdQLenPdf::47                 10                       # What read queue length does an incoming req see (Count)
system.far_mem_ctrl0.rdQLenPdf::48                 11                       # What read queue length does an incoming req see (Count)
system.far_mem_ctrl0.rdQLenPdf::49                 11                       # What read queue length does an incoming req see (Count)
system.far_mem_ctrl0.rdQLenPdf::50                 17                       # What read queue length does an incoming req see (Count)
system.far_mem_ctrl0.rdQLenPdf::51                 13                       # What read queue length does an incoming req see (Count)
system.far_mem_ctrl0.rdQLenPdf::52                 23                       # What read queue length does an incoming req see (Count)
system.far_mem_ctrl0.rdQLenPdf::53                 20                       # What read queue length does an incoming req see (Count)
system.far_mem_ctrl0.rdQLenPdf::54                 27                       # What read queue length does an incoming req see (Count)
system.far_mem_ctrl0.rdQLenPdf::55                 40                       # What read queue length does an incoming req see (Count)
system.far_mem_ctrl0.rdQLenPdf::56                 32                       # What read queue length does an incoming req see (Count)
system.far_mem_ctrl0.rdQLenPdf::57                 38                       # What read queue length does an incoming req see (Count)
system.far_mem_ctrl0.rdQLenPdf::58                 35                       # What read queue length does an incoming req see (Count)
system.far_mem_ctrl0.rdQLenPdf::59                 24                       # What read queue length does an incoming req see (Count)
system.far_mem_ctrl0.rdQLenPdf::60                 32                       # What read queue length does an incoming req see (Count)
system.far_mem_ctrl0.rdQLenPdf::61                 35                       # What read queue length does an incoming req see (Count)
system.far_mem_ctrl0.rdQLenPdf::62                 30                       # What read queue length does an incoming req see (Count)
system.far_mem_ctrl0.rdQLenPdf::63                 24                       # What read queue length does an incoming req see (Count)
system.far_mem_ctrl0.rdQLenPdf::64                 18                       # What read queue length does an incoming req see (Count)
system.far_mem_ctrl0.rdQLenPdf::65                 19                       # What read queue length does an incoming req see (Count)
system.far_mem_ctrl0.rdQLenPdf::66                 13                       # What read queue length does an incoming req see (Count)
system.far_mem_ctrl0.rdQLenPdf::67                 16                       # What read queue length does an incoming req see (Count)
system.far_mem_ctrl0.rdQLenPdf::68                 18                       # What read queue length does an incoming req see (Count)
system.far_mem_ctrl0.rdQLenPdf::69                 13                       # What read queue length does an incoming req see (Count)
system.far_mem_ctrl0.rdQLenPdf::70                 19                       # What read queue length does an incoming req see (Count)
system.far_mem_ctrl0.rdQLenPdf::71                 16                       # What read queue length does an incoming req see (Count)
system.far_mem_ctrl0.rdQLenPdf::72                 21                       # What read queue length does an incoming req see (Count)
system.far_mem_ctrl0.rdQLenPdf::73                 26                       # What read queue length does an incoming req see (Count)
system.far_mem_ctrl0.rdQLenPdf::74                 21                       # What read queue length does an incoming req see (Count)
system.far_mem_ctrl0.rdQLenPdf::75                 18                       # What read queue length does an incoming req see (Count)
system.far_mem_ctrl0.rdQLenPdf::76                 21                       # What read queue length does an incoming req see (Count)
system.far_mem_ctrl0.rdQLenPdf::77                 33                       # What read queue length does an incoming req see (Count)
system.far_mem_ctrl0.rdQLenPdf::78                 31                       # What read queue length does an incoming req see (Count)
system.far_mem_ctrl0.rdQLenPdf::79                 22                       # What read queue length does an incoming req see (Count)
system.far_mem_ctrl0.rdQLenPdf::80                 33                       # What read queue length does an incoming req see (Count)
system.far_mem_ctrl0.rdQLenPdf::81                 42                       # What read queue length does an incoming req see (Count)
system.far_mem_ctrl0.rdQLenPdf::82                 41                       # What read queue length does an incoming req see (Count)
system.far_mem_ctrl0.rdQLenPdf::83                 44                       # What read queue length does an incoming req see (Count)
system.far_mem_ctrl0.rdQLenPdf::84                 36                       # What read queue length does an incoming req see (Count)
system.far_mem_ctrl0.rdQLenPdf::85                 29                       # What read queue length does an incoming req see (Count)
system.far_mem_ctrl0.rdQLenPdf::86                 24                       # What read queue length does an incoming req see (Count)
system.far_mem_ctrl0.rdQLenPdf::87                 24                       # What read queue length does an incoming req see (Count)
system.far_mem_ctrl0.rdQLenPdf::88                 18                       # What read queue length does an incoming req see (Count)
system.far_mem_ctrl0.rdQLenPdf::89                 22                       # What read queue length does an incoming req see (Count)
system.far_mem_ctrl0.rdQLenPdf::90                 32                       # What read queue length does an incoming req see (Count)
system.far_mem_ctrl0.rdQLenPdf::91                 22                       # What read queue length does an incoming req see (Count)
system.far_mem_ctrl0.rdQLenPdf::92                 22                       # What read queue length does an incoming req see (Count)
system.far_mem_ctrl0.rdQLenPdf::93                 18                       # What read queue length does an incoming req see (Count)
system.far_mem_ctrl0.rdQLenPdf::94                 28                       # What read queue length does an incoming req see (Count)
system.far_mem_ctrl0.rdQLenPdf::95                 22                       # What read queue length does an incoming req see (Count)
system.far_mem_ctrl0.rdQLenPdf::96                 16                       # What read queue length does an incoming req see (Count)
system.far_mem_ctrl0.rdQLenPdf::97                  8                       # What read queue length does an incoming req see (Count)
system.far_mem_ctrl0.rdQLenPdf::98                  8                       # What read queue length does an incoming req see (Count)
system.far_mem_ctrl0.rdQLenPdf::99                 10                       # What read queue length does an incoming req see (Count)
system.far_mem_ctrl0.rdQLenPdf::100                16                       # What read queue length does an incoming req see (Count)
system.far_mem_ctrl0.rdQLenPdf::101                17                       # What read queue length does an incoming req see (Count)
system.far_mem_ctrl0.rdQLenPdf::102                 9                       # What read queue length does an incoming req see (Count)
system.far_mem_ctrl0.rdQLenPdf::103                 7                       # What read queue length does an incoming req see (Count)
system.far_mem_ctrl0.rdQLenPdf::104                 3                       # What read queue length does an incoming req see (Count)
system.far_mem_ctrl0.rdQLenPdf::105                 3                       # What read queue length does an incoming req see (Count)
system.far_mem_ctrl0.rdQLenPdf::106                 4                       # What read queue length does an incoming req see (Count)
system.far_mem_ctrl0.rdQLenPdf::107                 3                       # What read queue length does an incoming req see (Count)
system.far_mem_ctrl0.rdQLenPdf::108                 2                       # What read queue length does an incoming req see (Count)
system.far_mem_ctrl0.rdQLenPdf::109                 3                       # What read queue length does an incoming req see (Count)
system.far_mem_ctrl0.rdQLenPdf::110                 5                       # What read queue length does an incoming req see (Count)
system.far_mem_ctrl0.rdQLenPdf::111                 4                       # What read queue length does an incoming req see (Count)
system.far_mem_ctrl0.rdQLenPdf::112                 9                       # What read queue length does an incoming req see (Count)
system.far_mem_ctrl0.rdQLenPdf::113                13                       # What read queue length does an incoming req see (Count)
system.far_mem_ctrl0.rdQLenPdf::114                16                       # What read queue length does an incoming req see (Count)
system.far_mem_ctrl0.rdQLenPdf::115                 6                       # What read queue length does an incoming req see (Count)
system.far_mem_ctrl0.rdQLenPdf::116                 7                       # What read queue length does an incoming req see (Count)
system.far_mem_ctrl0.rdQLenPdf::117                 6                       # What read queue length does an incoming req see (Count)
system.far_mem_ctrl0.rdQLenPdf::118                 4                       # What read queue length does an incoming req see (Count)
system.far_mem_ctrl0.rdQLenPdf::119                 3                       # What read queue length does an incoming req see (Count)
system.far_mem_ctrl0.rdQLenPdf::120                 3                       # What read queue length does an incoming req see (Count)
system.far_mem_ctrl0.rdQLenPdf::121                 4                       # What read queue length does an incoming req see (Count)
system.far_mem_ctrl0.rdQLenPdf::122                 4                       # What read queue length does an incoming req see (Count)
system.far_mem_ctrl0.rdQLenPdf::123                 1                       # What read queue length does an incoming req see (Count)
system.far_mem_ctrl0.rdQLenPdf::124                 1                       # What read queue length does an incoming req see (Count)
system.far_mem_ctrl0.rdQLenPdf::125                 2                       # What read queue length does an incoming req see (Count)
system.far_mem_ctrl0.rdQLenPdf::126                 3                       # What read queue length does an incoming req see (Count)
system.far_mem_ctrl0.rdQLenPdf::127              2288                       # What read queue length does an incoming req see (Count)
system.far_mem_ctrl0.wrQLenPdf::0                   1                       # What write queue length does an incoming req see (Count)
system.far_mem_ctrl0.wrQLenPdf::1                   1                       # What write queue length does an incoming req see (Count)
system.far_mem_ctrl0.wrQLenPdf::2                   1                       # What write queue length does an incoming req see (Count)
system.far_mem_ctrl0.wrQLenPdf::3                   1                       # What write queue length does an incoming req see (Count)
system.far_mem_ctrl0.wrQLenPdf::4                   1                       # What write queue length does an incoming req see (Count)
system.far_mem_ctrl0.wrQLenPdf::5                   1                       # What write queue length does an incoming req see (Count)
system.far_mem_ctrl0.wrQLenPdf::6                   1                       # What write queue length does an incoming req see (Count)
system.far_mem_ctrl0.wrQLenPdf::7                   1                       # What write queue length does an incoming req see (Count)
system.far_mem_ctrl0.wrQLenPdf::8                   1                       # What write queue length does an incoming req see (Count)
system.far_mem_ctrl0.wrQLenPdf::9                   1                       # What write queue length does an incoming req see (Count)
system.far_mem_ctrl0.wrQLenPdf::10                  1                       # What write queue length does an incoming req see (Count)
system.far_mem_ctrl0.wrQLenPdf::11                  1                       # What write queue length does an incoming req see (Count)
system.far_mem_ctrl0.wrQLenPdf::12                  1                       # What write queue length does an incoming req see (Count)
system.far_mem_ctrl0.wrQLenPdf::13                  1                       # What write queue length does an incoming req see (Count)
system.far_mem_ctrl0.wrQLenPdf::14                  1                       # What write queue length does an incoming req see (Count)
system.far_mem_ctrl0.wrQLenPdf::15                  1                       # What write queue length does an incoming req see (Count)
system.far_mem_ctrl0.wrQLenPdf::16                  1                       # What write queue length does an incoming req see (Count)
system.far_mem_ctrl0.wrQLenPdf::17                  1                       # What write queue length does an incoming req see (Count)
system.far_mem_ctrl0.wrQLenPdf::18                  1                       # What write queue length does an incoming req see (Count)
system.far_mem_ctrl0.wrQLenPdf::19                  1                       # What write queue length does an incoming req see (Count)
system.far_mem_ctrl0.wrQLenPdf::20                  1                       # What write queue length does an incoming req see (Count)
system.far_mem_ctrl0.wrQLenPdf::21                  1                       # What write queue length does an incoming req see (Count)
system.far_mem_ctrl0.wrQLenPdf::22                  1                       # What write queue length does an incoming req see (Count)
system.far_mem_ctrl0.wrQLenPdf::23                  1                       # What write queue length does an incoming req see (Count)
system.far_mem_ctrl0.wrQLenPdf::24                  1                       # What write queue length does an incoming req see (Count)
system.far_mem_ctrl0.wrQLenPdf::25                  1                       # What write queue length does an incoming req see (Count)
system.far_mem_ctrl0.wrQLenPdf::26                  1                       # What write queue length does an incoming req see (Count)
system.far_mem_ctrl0.wrQLenPdf::27                  1                       # What write queue length does an incoming req see (Count)
system.far_mem_ctrl0.wrQLenPdf::28                  1                       # What write queue length does an incoming req see (Count)
system.far_mem_ctrl0.wrQLenPdf::29                  1                       # What write queue length does an incoming req see (Count)
system.far_mem_ctrl0.wrQLenPdf::30                  1                       # What write queue length does an incoming req see (Count)
system.far_mem_ctrl0.wrQLenPdf::31                  1                       # What write queue length does an incoming req see (Count)
system.far_mem_ctrl0.wrQLenPdf::32                  1                       # What write queue length does an incoming req see (Count)
system.far_mem_ctrl0.wrQLenPdf::33                  1                       # What write queue length does an incoming req see (Count)
system.far_mem_ctrl0.wrQLenPdf::34                  1                       # What write queue length does an incoming req see (Count)
system.far_mem_ctrl0.wrQLenPdf::35                  1                       # What write queue length does an incoming req see (Count)
system.far_mem_ctrl0.wrQLenPdf::36                  1                       # What write queue length does an incoming req see (Count)
system.far_mem_ctrl0.wrQLenPdf::37                  1                       # What write queue length does an incoming req see (Count)
system.far_mem_ctrl0.wrQLenPdf::38                  1                       # What write queue length does an incoming req see (Count)
system.far_mem_ctrl0.wrQLenPdf::39                  1                       # What write queue length does an incoming req see (Count)
system.far_mem_ctrl0.wrQLenPdf::40                  1                       # What write queue length does an incoming req see (Count)
system.far_mem_ctrl0.wrQLenPdf::41                  1                       # What write queue length does an incoming req see (Count)
system.far_mem_ctrl0.wrQLenPdf::42                  1                       # What write queue length does an incoming req see (Count)
system.far_mem_ctrl0.wrQLenPdf::43                  1                       # What write queue length does an incoming req see (Count)
system.far_mem_ctrl0.wrQLenPdf::44                  1                       # What write queue length does an incoming req see (Count)
system.far_mem_ctrl0.wrQLenPdf::45                  1                       # What write queue length does an incoming req see (Count)
system.far_mem_ctrl0.wrQLenPdf::46                  1                       # What write queue length does an incoming req see (Count)
system.far_mem_ctrl0.wrQLenPdf::47                  1                       # What write queue length does an incoming req see (Count)
system.far_mem_ctrl0.wrQLenPdf::48                  1                       # What write queue length does an incoming req see (Count)
system.far_mem_ctrl0.wrQLenPdf::49                  1                       # What write queue length does an incoming req see (Count)
system.far_mem_ctrl0.wrQLenPdf::50                  1                       # What write queue length does an incoming req see (Count)
system.far_mem_ctrl0.wrQLenPdf::51                  1                       # What write queue length does an incoming req see (Count)
system.far_mem_ctrl0.wrQLenPdf::52                  1                       # What write queue length does an incoming req see (Count)
system.far_mem_ctrl0.wrQLenPdf::53                  1                       # What write queue length does an incoming req see (Count)
system.far_mem_ctrl0.wrQLenPdf::54                  1                       # What write queue length does an incoming req see (Count)
system.far_mem_ctrl0.wrQLenPdf::55                  1                       # What write queue length does an incoming req see (Count)
system.far_mem_ctrl0.wrQLenPdf::56                  1                       # What write queue length does an incoming req see (Count)
system.far_mem_ctrl0.wrQLenPdf::57                  1                       # What write queue length does an incoming req see (Count)
system.far_mem_ctrl0.wrQLenPdf::58                  1                       # What write queue length does an incoming req see (Count)
system.far_mem_ctrl0.wrQLenPdf::59                  1                       # What write queue length does an incoming req see (Count)
system.far_mem_ctrl0.wrQLenPdf::60                  1                       # What write queue length does an incoming req see (Count)
system.far_mem_ctrl0.wrQLenPdf::61                  1                       # What write queue length does an incoming req see (Count)
system.far_mem_ctrl0.wrQLenPdf::62                  1                       # What write queue length does an incoming req see (Count)
system.far_mem_ctrl0.wrQLenPdf::63                  1                       # What write queue length does an incoming req see (Count)
system.far_mem_ctrl0.wrQLenPdf::64                  1                       # What write queue length does an incoming req see (Count)
system.far_mem_ctrl0.wrQLenPdf::65                  1                       # What write queue length does an incoming req see (Count)
system.far_mem_ctrl0.wrQLenPdf::66                  1                       # What write queue length does an incoming req see (Count)
system.far_mem_ctrl0.wrQLenPdf::67                  1                       # What write queue length does an incoming req see (Count)
system.far_mem_ctrl0.wrQLenPdf::68                  1                       # What write queue length does an incoming req see (Count)
system.far_mem_ctrl0.wrQLenPdf::69                  1                       # What write queue length does an incoming req see (Count)
system.far_mem_ctrl0.wrQLenPdf::70                  1                       # What write queue length does an incoming req see (Count)
system.far_mem_ctrl0.wrQLenPdf::71                  1                       # What write queue length does an incoming req see (Count)
system.far_mem_ctrl0.wrQLenPdf::72                  1                       # What write queue length does an incoming req see (Count)
system.far_mem_ctrl0.wrQLenPdf::73                  1                       # What write queue length does an incoming req see (Count)
system.far_mem_ctrl0.wrQLenPdf::74                  1                       # What write queue length does an incoming req see (Count)
system.far_mem_ctrl0.wrQLenPdf::75                  1                       # What write queue length does an incoming req see (Count)
system.far_mem_ctrl0.wrQLenPdf::76                  1                       # What write queue length does an incoming req see (Count)
system.far_mem_ctrl0.wrQLenPdf::77                  1                       # What write queue length does an incoming req see (Count)
system.far_mem_ctrl0.wrQLenPdf::78                  1                       # What write queue length does an incoming req see (Count)
system.far_mem_ctrl0.wrQLenPdf::79                  1                       # What write queue length does an incoming req see (Count)
system.far_mem_ctrl0.wrQLenPdf::80                  1                       # What write queue length does an incoming req see (Count)
system.far_mem_ctrl0.wrQLenPdf::81                  1                       # What write queue length does an incoming req see (Count)
system.far_mem_ctrl0.wrQLenPdf::82                  1                       # What write queue length does an incoming req see (Count)
system.far_mem_ctrl0.wrQLenPdf::83                  1                       # What write queue length does an incoming req see (Count)
system.far_mem_ctrl0.wrQLenPdf::84                  1                       # What write queue length does an incoming req see (Count)
system.far_mem_ctrl0.wrQLenPdf::85                  1                       # What write queue length does an incoming req see (Count)
system.far_mem_ctrl0.wrQLenPdf::86                  1                       # What write queue length does an incoming req see (Count)
system.far_mem_ctrl0.wrQLenPdf::87                  1                       # What write queue length does an incoming req see (Count)
system.far_mem_ctrl0.wrQLenPdf::88                  1                       # What write queue length does an incoming req see (Count)
system.far_mem_ctrl0.wrQLenPdf::89                  1                       # What write queue length does an incoming req see (Count)
system.far_mem_ctrl0.wrQLenPdf::90                  1                       # What write queue length does an incoming req see (Count)
system.far_mem_ctrl0.wrQLenPdf::91                  1                       # What write queue length does an incoming req see (Count)
system.far_mem_ctrl0.wrQLenPdf::92                  1                       # What write queue length does an incoming req see (Count)
system.far_mem_ctrl0.wrQLenPdf::93                 25                       # What write queue length does an incoming req see (Count)
system.far_mem_ctrl0.wrQLenPdf::94                 45                       # What write queue length does an incoming req see (Count)
system.far_mem_ctrl0.wrQLenPdf::95                 67                       # What write queue length does an incoming req see (Count)
system.far_mem_ctrl0.wrQLenPdf::96                 80                       # What write queue length does an incoming req see (Count)
system.far_mem_ctrl0.wrQLenPdf::97                 92                       # What write queue length does an incoming req see (Count)
system.far_mem_ctrl0.wrQLenPdf::98                 89                       # What write queue length does an incoming req see (Count)
system.far_mem_ctrl0.wrQLenPdf::99                 88                       # What write queue length does an incoming req see (Count)
system.far_mem_ctrl0.wrQLenPdf::100                87                       # What write queue length does an incoming req see (Count)
system.far_mem_ctrl0.wrQLenPdf::101                90                       # What write queue length does an incoming req see (Count)
system.far_mem_ctrl0.wrQLenPdf::102                90                       # What write queue length does an incoming req see (Count)
system.far_mem_ctrl0.wrQLenPdf::103                85                       # What write queue length does an incoming req see (Count)
system.far_mem_ctrl0.wrQLenPdf::104                91                       # What write queue length does an incoming req see (Count)
system.far_mem_ctrl0.wrQLenPdf::105                88                       # What write queue length does an incoming req see (Count)
system.far_mem_ctrl0.wrQLenPdf::106                88                       # What write queue length does an incoming req see (Count)
system.far_mem_ctrl0.wrQLenPdf::107                86                       # What write queue length does an incoming req see (Count)
system.far_mem_ctrl0.wrQLenPdf::108                88                       # What write queue length does an incoming req see (Count)
system.far_mem_ctrl0.wrQLenPdf::109                30                       # What write queue length does an incoming req see (Count)
system.far_mem_ctrl0.wrQLenPdf::110                11                       # What write queue length does an incoming req see (Count)
system.far_mem_ctrl0.wrQLenPdf::111                 4                       # What write queue length does an incoming req see (Count)
system.far_mem_ctrl0.wrQLenPdf::112                 1                       # What write queue length does an incoming req see (Count)
system.far_mem_ctrl0.wrQLenPdf::113                 0                       # What write queue length does an incoming req see (Count)
system.far_mem_ctrl0.wrQLenPdf::114                 0                       # What write queue length does an incoming req see (Count)
system.far_mem_ctrl0.wrQLenPdf::115                 0                       # What write queue length does an incoming req see (Count)
system.far_mem_ctrl0.wrQLenPdf::116                 0                       # What write queue length does an incoming req see (Count)
system.far_mem_ctrl0.wrQLenPdf::117                 0                       # What write queue length does an incoming req see (Count)
system.far_mem_ctrl0.wrQLenPdf::118                 0                       # What write queue length does an incoming req see (Count)
system.far_mem_ctrl0.wrQLenPdf::119                 0                       # What write queue length does an incoming req see (Count)
system.far_mem_ctrl0.wrQLenPdf::120                 0                       # What write queue length does an incoming req see (Count)
system.far_mem_ctrl0.wrQLenPdf::121                 0                       # What write queue length does an incoming req see (Count)
system.far_mem_ctrl0.wrQLenPdf::122                 0                       # What write queue length does an incoming req see (Count)
system.far_mem_ctrl0.wrQLenPdf::123                 0                       # What write queue length does an incoming req see (Count)
system.far_mem_ctrl0.wrQLenPdf::124                 0                       # What write queue length does an incoming req see (Count)
system.far_mem_ctrl0.wrQLenPdf::125                 0                       # What write queue length does an incoming req see (Count)
system.far_mem_ctrl0.wrQLenPdf::126                 0                       # What write queue length does an incoming req see (Count)
system.far_mem_ctrl0.wrQLenPdf::127                 0                       # What write queue length does an incoming req see (Count)
system.far_mem_ctrl0.rdPerTurnAround::samples           82                       # Reads before turning the bus around for writes (Count)
system.far_mem_ctrl0.rdPerTurnAround::mean    61.024390                       # Reads before turning the bus around for writes (Count)
system.far_mem_ctrl0.rdPerTurnAround::gmean    44.139969                       # Reads before turning the bus around for writes (Count)
system.far_mem_ctrl0.rdPerTurnAround::stdev   136.219320                       # Reads before turning the bus around for writes (Count)
system.far_mem_ctrl0.rdPerTurnAround::16-31           20     24.39%     24.39% # Reads before turning the bus around for writes (Count)
system.far_mem_ctrl0.rdPerTurnAround::32-47           23     28.05%     52.44% # Reads before turning the bus around for writes (Count)
system.far_mem_ctrl0.rdPerTurnAround::48-63           24     29.27%     81.71% # Reads before turning the bus around for writes (Count)
system.far_mem_ctrl0.rdPerTurnAround::64-79           10     12.20%     93.90% # Reads before turning the bus around for writes (Count)
system.far_mem_ctrl0.rdPerTurnAround::80-95            2      2.44%     96.34% # Reads before turning the bus around for writes (Count)
system.far_mem_ctrl0.rdPerTurnAround::96-111            2      2.44%     98.78% # Reads before turning the bus around for writes (Count)
system.far_mem_ctrl0.rdPerTurnAround::1264-1279            1      1.22%    100.00% # Reads before turning the bus around for writes (Count)
system.far_mem_ctrl0.rdPerTurnAround::total           82                       # Reads before turning the bus around for writes (Count)
system.far_mem_ctrl0.wrPerTurnAround::samples           82                       # Writes before turning the bus around for reads (Count)
system.far_mem_ctrl0.wrPerTurnAround::mean           16                       # Writes before turning the bus around for reads (Count)
system.far_mem_ctrl0.wrPerTurnAround::gmean    16.000000                       # Writes before turning the bus around for reads (Count)
system.far_mem_ctrl0.wrPerTurnAround::16           82    100.00%    100.00% # Writes before turning the bus around for reads (Count)
system.far_mem_ctrl0.wrPerTurnAround::total           82                       # Writes before turning the bus around for reads (Count)
system.far_mem_ctrl0.bytesReadWrQ                   0                       # Total number of bytes read from write queue (Byte)
system.far_mem_ctrl0.bytesReadSys              327616                       # Total read bytes from the system interface side (Byte)
system.far_mem_ctrl0.bytesWrittenSys            90752                       # Total written bytes from the system interface side (Byte)
system.far_mem_ctrl0.avgRdBWSys          3275334615.67684937                       # Average system read bandwidth in Byte/s ((Byte/Second))
system.far_mem_ctrl0.avgWrBWSys          907291362.57663059                       # Average system write bandwidth in Byte/s ((Byte/Second))
system.far_mem_ctrl0.totGap                  99848000                       # Total gap between requests (Tick)
system.far_mem_ctrl0.avgGap                  15274.28                       # Average gap between requests ((Tick/Count))
system.far_mem_ctrl0.requestorReadBytes::writebacks       322496                       # Per-requestor bytes read from memory (Byte)
system.far_mem_ctrl0.requestorWriteBytes::writebacks        83968                       # Per-requestor bytes write to memory (Byte)
system.far_mem_ctrl0.requestorReadRate::writebacks 3224147514.826263427734                       # Per-requestor bytes read from memory rate ((Byte/Second))
system.far_mem_ctrl0.requestorWriteRate::writebacks 839468453.949604630470                       # Per-requestor bytes write to memory rate ((Byte/Second))
system.far_mem_ctrl0.requestorReadAccesses::writebacks         5119                       # Per-requestor read serviced memory accesses (Count)
system.far_mem_ctrl0.requestorWriteAccesses::writebacks         1418                       # Per-requestor write serviced memory accesses (Count)
system.far_mem_ctrl0.requestorReadTotalLat::writebacks   9183600284                       # Per-requestor read total memory access latency (Tick)
system.far_mem_ctrl0.requestorWriteTotalLat::writebacks   8748858856                       # Per-requestor write total memory access latency (Tick)
system.far_mem_ctrl0.requestorReadAvgLat::writebacks   1794022.33                       # Per-requestor read average memory access latency ((Tick/Count))
system.far_mem_ctrl0.requestorWriteAvgLat::writebacks   6169858.15                       # Per-requestor write average memory access latency ((Tick/Count))
system.far_mem_ctrl0.dram.bytesRead::writebacks       322304                       # Number of bytes read from this memory (Byte)
system.far_mem_ctrl0.dram.bytesRead::total       322304                       # Number of bytes read from this memory (Byte)
system.far_mem_ctrl0.dram.bytesWritten::writebacks        90752                       # Number of bytes written to this memory (Byte)
system.far_mem_ctrl0.dram.bytesWritten::total        90752                       # Number of bytes written to this memory (Byte)
system.far_mem_ctrl0.dram.numReads::writebacks         5036                       # Number of read requests responded to by this memory (Count)
system.far_mem_ctrl0.dram.numReads::total         5036                       # Number of read requests responded to by this memory (Count)
system.far_mem_ctrl0.dram.numWrites::writebacks         1418                       # Number of write requests responded to by this memory (Count)
system.far_mem_ctrl0.dram.numWrites::total         1418                       # Number of write requests responded to by this memory (Count)
system.far_mem_ctrl0.dram.bwRead::writebacks   3222227999                       # Total read bandwidth from this memory ((Byte/Second))
system.far_mem_ctrl0.dram.bwRead::total    3222227999                       # Total read bandwidth from this memory ((Byte/Second))
system.far_mem_ctrl0.dram.bwWrite::writebacks    907291363                       # Write bandwidth from this memory ((Byte/Second))
system.far_mem_ctrl0.dram.bwWrite::total    907291363                       # Write bandwidth from this memory ((Byte/Second))
system.far_mem_ctrl0.dram.bwTotal::writebacks   4129519361                       # Total bandwidth to/from this memory ((Byte/Second))
system.far_mem_ctrl0.dram.bwTotal::total   4129519361                       # Total bandwidth to/from this memory ((Byte/Second))
system.far_mem_ctrl0.dram.readBursts             5039                       # Number of NVM read bursts (Count)
system.far_mem_ctrl0.dram.writeBursts            1312                       # Number of NVM write bursts (Count)
system.far_mem_ctrl0.dram.perBankRdBursts::0          318                       # Per bank write bursts (Count)
system.far_mem_ctrl0.dram.perBankRdBursts::1          324                       # Per bank write bursts (Count)
system.far_mem_ctrl0.dram.perBankRdBursts::2          310                       # Per bank write bursts (Count)
system.far_mem_ctrl0.dram.perBankRdBursts::3          292                       # Per bank write bursts (Count)
system.far_mem_ctrl0.dram.perBankRdBursts::4          312                       # Per bank write bursts (Count)
system.far_mem_ctrl0.dram.perBankRdBursts::5          317                       # Per bank write bursts (Count)
system.far_mem_ctrl0.dram.perBankRdBursts::6          305                       # Per bank write bursts (Count)
system.far_mem_ctrl0.dram.perBankRdBursts::7          295                       # Per bank write bursts (Count)
system.far_mem_ctrl0.dram.perBankRdBursts::8          318                       # Per bank write bursts (Count)
system.far_mem_ctrl0.dram.perBankRdBursts::9          343                       # Per bank write bursts (Count)
system.far_mem_ctrl0.dram.perBankRdBursts::10          314                       # Per bank write bursts (Count)
system.far_mem_ctrl0.dram.perBankRdBursts::11          310                       # Per bank write bursts (Count)
system.far_mem_ctrl0.dram.perBankRdBursts::12          307                       # Per bank write bursts (Count)
system.far_mem_ctrl0.dram.perBankRdBursts::13          335                       # Per bank write bursts (Count)
system.far_mem_ctrl0.dram.perBankRdBursts::14          318                       # Per bank write bursts (Count)
system.far_mem_ctrl0.dram.perBankRdBursts::15          321                       # Per bank write bursts (Count)
system.far_mem_ctrl0.dram.perBankWrBursts::0           90                       # Per bank write bursts (Count)
system.far_mem_ctrl0.dram.perBankWrBursts::1           89                       # Per bank write bursts (Count)
system.far_mem_ctrl0.dram.perBankWrBursts::2           90                       # Per bank write bursts (Count)
system.far_mem_ctrl0.dram.perBankWrBursts::3           79                       # Per bank write bursts (Count)
system.far_mem_ctrl0.dram.perBankWrBursts::4           70                       # Per bank write bursts (Count)
system.far_mem_ctrl0.dram.perBankWrBursts::5           83                       # Per bank write bursts (Count)
system.far_mem_ctrl0.dram.perBankWrBursts::6           73                       # Per bank write bursts (Count)
system.far_mem_ctrl0.dram.perBankWrBursts::7           70                       # Per bank write bursts (Count)
system.far_mem_ctrl0.dram.perBankWrBursts::8           89                       # Per bank write bursts (Count)
system.far_mem_ctrl0.dram.perBankWrBursts::9           74                       # Per bank write bursts (Count)
system.far_mem_ctrl0.dram.perBankWrBursts::10           94                       # Per bank write bursts (Count)
system.far_mem_ctrl0.dram.perBankWrBursts::11           77                       # Per bank write bursts (Count)
system.far_mem_ctrl0.dram.perBankWrBursts::12           90                       # Per bank write bursts (Count)
system.far_mem_ctrl0.dram.perBankWrBursts::13           91                       # Per bank write bursts (Count)
system.far_mem_ctrl0.dram.perBankWrBursts::14           70                       # Per bank write bursts (Count)
system.far_mem_ctrl0.dram.perBankWrBursts::15           83                       # Per bank write bursts (Count)
system.far_mem_ctrl0.dram.totQLat          9095458096                       # Total ticks spent queuing (Tick)
system.far_mem_ctrl0.dram.totBusLat          16789948                       # Total ticks spent in databus transfers (Tick)
system.far_mem_ctrl0.dram.totMemAccLat     9183600284                       # Total ticks spent from burst creation until serviced by the NVM (Tick)
system.far_mem_ctrl0.dram.avgQLat          1805012.52                       # Average queueing delay per NVM burst ((Tick/Count))
system.far_mem_ctrl0.dram.avgBusLat           3332.00                       # Average bus latency per NVM burst ((Tick/Count))
system.far_mem_ctrl0.dram.avgMemAccLat     1822504.52                       # Average memory access latency per NVM burst ((Tick/Count))
system.far_mem_ctrl0.dram.avgRdBW             3224.15                       # Average DRAM read bandwidth in MiBytes/s ((Byte/Second))
system.far_mem_ctrl0.dram.avgWrBW              839.47                       # Average DRAM write bandwidth in MiBytes/s ((Byte/Second))
system.far_mem_ctrl0.dram.peakBW             19207.00                       # Theoretical peak bandwidth in MiByte/s ((Byte/Second))
system.far_mem_ctrl0.dram.busUtil               21.16                       # NVM Data bus utilization in percentage (Ratio)
system.far_mem_ctrl0.dram.busUtilRead           16.79                       # NVM Data bus read utilization in percentage (Ratio)
system.far_mem_ctrl0.dram.busUtilWrite           4.37                       # NVM Data bus write utilization in percentage (Ratio)
system.far_mem_ctrl0.dram.pendingReads::samples         5039                       # Reads issued to NVM for which data has not been transferred (Count)
system.far_mem_ctrl0.dram.pendingReads::mean    53.025005                       # Reads issued to NVM for which data has not been transferred (Count)
system.far_mem_ctrl0.dram.pendingReads::gmean    49.874796                       # Reads issued to NVM for which data has not been transferred (Count)
system.far_mem_ctrl0.dram.pendingReads::stdev    15.531211                       # Reads issued to NVM for which data has not been transferred (Count)
system.far_mem_ctrl0.dram.pendingReads::13            4      0.08%      0.08% # Reads issued to NVM for which data has not been transferred (Count)
system.far_mem_ctrl0.dram.pendingReads::14            5      0.10%      0.18% # Reads issued to NVM for which data has not been transferred (Count)
system.far_mem_ctrl0.dram.pendingReads::15            8      0.16%      0.34% # Reads issued to NVM for which data has not been transferred (Count)
system.far_mem_ctrl0.dram.pendingReads::16           14      0.28%      0.62% # Reads issued to NVM for which data has not been transferred (Count)
system.far_mem_ctrl0.dram.pendingReads::17           20      0.40%      1.01% # Reads issued to NVM for which data has not been transferred (Count)
system.far_mem_ctrl0.dram.pendingReads::18           39      0.77%      1.79% # Reads issued to NVM for which data has not been transferred (Count)
system.far_mem_ctrl0.dram.pendingReads::19           36      0.71%      2.50% # Reads issued to NVM for which data has not been transferred (Count)
system.far_mem_ctrl0.dram.pendingReads::20           53      1.05%      3.55% # Reads issued to NVM for which data has not been transferred (Count)
system.far_mem_ctrl0.dram.pendingReads::21           54      1.07%      4.62% # Reads issued to NVM for which data has not been transferred (Count)
system.far_mem_ctrl0.dram.pendingReads::22           64      1.27%      5.89% # Reads issued to NVM for which data has not been transferred (Count)
system.far_mem_ctrl0.dram.pendingReads::23           57      1.13%      7.03% # Reads issued to NVM for which data has not been transferred (Count)
system.far_mem_ctrl0.dram.pendingReads::24           63      1.25%      8.28% # Reads issued to NVM for which data has not been transferred (Count)
system.far_mem_ctrl0.dram.pendingReads::25           81      1.61%      9.88% # Reads issued to NVM for which data has not been transferred (Count)
system.far_mem_ctrl0.dram.pendingReads::26           79      1.57%     11.45% # Reads issued to NVM for which data has not been transferred (Count)
system.far_mem_ctrl0.dram.pendingReads::27           62      1.23%     12.68% # Reads issued to NVM for which data has not been transferred (Count)
system.far_mem_ctrl0.dram.pendingReads::28           66      1.31%     13.99% # Reads issued to NVM for which data has not been transferred (Count)
system.far_mem_ctrl0.dram.pendingReads::29           46      0.91%     14.90% # Reads issued to NVM for which data has not been transferred (Count)
system.far_mem_ctrl0.dram.pendingReads::30           59      1.17%     16.07% # Reads issued to NVM for which data has not been transferred (Count)
system.far_mem_ctrl0.dram.pendingReads::31           60      1.19%     17.27% # Reads issued to NVM for which data has not been transferred (Count)
system.far_mem_ctrl0.dram.pendingReads::32           59      1.17%     18.44% # Reads issued to NVM for which data has not been transferred (Count)
system.far_mem_ctrl0.dram.pendingReads::33           64      1.27%     19.71% # Reads issued to NVM for which data has not been transferred (Count)
system.far_mem_ctrl0.dram.pendingReads::34           56      1.11%     20.82% # Reads issued to NVM for which data has not been transferred (Count)
system.far_mem_ctrl0.dram.pendingReads::35           56      1.11%     21.93% # Reads issued to NVM for which data has not been transferred (Count)
system.far_mem_ctrl0.dram.pendingReads::36           61      1.21%     23.14% # Reads issued to NVM for which data has not been transferred (Count)
system.far_mem_ctrl0.dram.pendingReads::37           48      0.95%     24.09% # Reads issued to NVM for which data has not been transferred (Count)
system.far_mem_ctrl0.dram.pendingReads::38           52      1.03%     25.12% # Reads issued to NVM for which data has not been transferred (Count)
system.far_mem_ctrl0.dram.pendingReads::39           52      1.03%     26.16% # Reads issued to NVM for which data has not been transferred (Count)
system.far_mem_ctrl0.dram.pendingReads::40           25      0.50%     26.65% # Reads issued to NVM for which data has not been transferred (Count)
system.far_mem_ctrl0.dram.pendingReads::41           11      0.22%     26.87% # Reads issued to NVM for which data has not been transferred (Count)
system.far_mem_ctrl0.dram.pendingReads::42            6      0.12%     26.99% # Reads issued to NVM for which data has not been transferred (Count)
system.far_mem_ctrl0.dram.pendingReads::43            4      0.08%     27.07% # Reads issued to NVM for which data has not been transferred (Count)
system.far_mem_ctrl0.dram.pendingReads::44            5      0.10%     27.17% # Reads issued to NVM for which data has not been transferred (Count)
system.far_mem_ctrl0.dram.pendingReads::45           12      0.24%     27.41% # Reads issued to NVM for which data has not been transferred (Count)
system.far_mem_ctrl0.dram.pendingReads::46            8      0.16%     27.56% # Reads issued to NVM for which data has not been transferred (Count)
system.far_mem_ctrl0.dram.pendingReads::47            6      0.12%     27.68% # Reads issued to NVM for which data has not been transferred (Count)
system.far_mem_ctrl0.dram.pendingReads::48            8      0.16%     27.84% # Reads issued to NVM for which data has not been transferred (Count)
system.far_mem_ctrl0.dram.pendingReads::49           14      0.28%     28.12% # Reads issued to NVM for which data has not been transferred (Count)
system.far_mem_ctrl0.dram.pendingReads::50           15      0.30%     28.42% # Reads issued to NVM for which data has not been transferred (Count)
system.far_mem_ctrl0.dram.pendingReads::51           17      0.34%     28.76% # Reads issued to NVM for which data has not been transferred (Count)
system.far_mem_ctrl0.dram.pendingReads::52           24      0.48%     29.23% # Reads issued to NVM for which data has not been transferred (Count)
system.far_mem_ctrl0.dram.pendingReads::53           21      0.42%     29.65% # Reads issued to NVM for which data has not been transferred (Count)
system.far_mem_ctrl0.dram.pendingReads::54           36      0.71%     30.36% # Reads issued to NVM for which data has not been transferred (Count)
system.far_mem_ctrl0.dram.pendingReads::55           38      0.75%     31.12% # Reads issued to NVM for which data has not been transferred (Count)
system.far_mem_ctrl0.dram.pendingReads::56           31      0.62%     31.73% # Reads issued to NVM for which data has not been transferred (Count)
system.far_mem_ctrl0.dram.pendingReads::57           34      0.67%     32.41% # Reads issued to NVM for which data has not been transferred (Count)
system.far_mem_ctrl0.dram.pendingReads::58           26      0.52%     32.92% # Reads issued to NVM for which data has not been transferred (Count)
system.far_mem_ctrl0.dram.pendingReads::59           33      0.65%     33.58% # Reads issued to NVM for which data has not been transferred (Count)
system.far_mem_ctrl0.dram.pendingReads::60           32      0.64%     34.21% # Reads issued to NVM for which data has not been transferred (Count)
system.far_mem_ctrl0.dram.pendingReads::61           31      0.62%     34.83% # Reads issued to NVM for which data has not been transferred (Count)
system.far_mem_ctrl0.dram.pendingReads::62           28      0.56%     35.38% # Reads issued to NVM for which data has not been transferred (Count)
system.far_mem_ctrl0.dram.pendingReads::63         3256     64.62%    100.00% # Reads issued to NVM for which data has not been transferred (Count)
system.far_mem_ctrl0.dram.pendingReads::total         5039                       # Reads issued to NVM for which data has not been transferred (Count)
system.far_mem_ctrl0.dram.pendingWrites::samples         1278                       # Number of outstanding writes to NVM (Count)
system.far_mem_ctrl0.dram.pendingWrites::mean    27.732394                       # Number of outstanding writes to NVM (Count)
system.far_mem_ctrl0.dram.pendingWrites::gmean    26.377307                       # Number of outstanding writes to NVM (Count)
system.far_mem_ctrl0.dram.pendingWrites::stdev     8.277134                       # Number of outstanding writes to NVM (Count)
system.far_mem_ctrl0.dram.pendingWrites::6            1      0.08%      0.08% # Number of outstanding writes to NVM (Count)
system.far_mem_ctrl0.dram.pendingWrites::7            1      0.08%      0.16% # Number of outstanding writes to NVM (Count)
system.far_mem_ctrl0.dram.pendingWrites::8            4      0.31%      0.47% # Number of outstanding writes to NVM (Count)
system.far_mem_ctrl0.dram.pendingWrites::9            6      0.47%      0.94% # Number of outstanding writes to NVM (Count)
system.far_mem_ctrl0.dram.pendingWrites::10            7      0.55%      1.49% # Number of outstanding writes to NVM (Count)
system.far_mem_ctrl0.dram.pendingWrites::11            8      0.63%      2.11% # Number of outstanding writes to NVM (Count)
system.far_mem_ctrl0.dram.pendingWrites::12           11      0.86%      2.97% # Number of outstanding writes to NVM (Count)
system.far_mem_ctrl0.dram.pendingWrites::13           16      1.25%      4.23% # Number of outstanding writes to NVM (Count)
system.far_mem_ctrl0.dram.pendingWrites::14           18      1.41%      5.63% # Number of outstanding writes to NVM (Count)
system.far_mem_ctrl0.dram.pendingWrites::15           19      1.49%      7.12% # Number of outstanding writes to NVM (Count)
system.far_mem_ctrl0.dram.pendingWrites::16           22      1.72%      8.84% # Number of outstanding writes to NVM (Count)
system.far_mem_ctrl0.dram.pendingWrites::17           24      1.88%     10.72% # Number of outstanding writes to NVM (Count)
system.far_mem_ctrl0.dram.pendingWrites::18           30      2.35%     13.07% # Number of outstanding writes to NVM (Count)
system.far_mem_ctrl0.dram.pendingWrites::19           38      2.97%     16.04% # Number of outstanding writes to NVM (Count)
system.far_mem_ctrl0.dram.pendingWrites::20           44      3.44%     19.48% # Number of outstanding writes to NVM (Count)
system.far_mem_ctrl0.dram.pendingWrites::21           48      3.76%     23.24% # Number of outstanding writes to NVM (Count)
system.far_mem_ctrl0.dram.pendingWrites::22           51      3.99%     27.23% # Number of outstanding writes to NVM (Count)
system.far_mem_ctrl0.dram.pendingWrites::23           53      4.15%     31.38% # Number of outstanding writes to NVM (Count)
system.far_mem_ctrl0.dram.pendingWrites::24           54      4.23%     35.60% # Number of outstanding writes to NVM (Count)
system.far_mem_ctrl0.dram.pendingWrites::25           59      4.62%     40.22% # Number of outstanding writes to NVM (Count)
system.far_mem_ctrl0.dram.pendingWrites::26           60      4.69%     44.91% # Number of outstanding writes to NVM (Count)
system.far_mem_ctrl0.dram.pendingWrites::27           61      4.77%     49.69% # Number of outstanding writes to NVM (Count)
system.far_mem_ctrl0.dram.pendingWrites::28           56      4.38%     54.07% # Number of outstanding writes to NVM (Count)
system.far_mem_ctrl0.dram.pendingWrites::29           61      4.77%     58.84% # Number of outstanding writes to NVM (Count)
system.far_mem_ctrl0.dram.pendingWrites::30           63      4.93%     63.77% # Number of outstanding writes to NVM (Count)
system.far_mem_ctrl0.dram.pendingWrites::31           57      4.46%     68.23% # Number of outstanding writes to NVM (Count)
system.far_mem_ctrl0.dram.pendingWrites::32           54      4.23%     72.46% # Number of outstanding writes to NVM (Count)
system.far_mem_ctrl0.dram.pendingWrites::33           52      4.07%     76.53% # Number of outstanding writes to NVM (Count)
system.far_mem_ctrl0.dram.pendingWrites::34           42      3.29%     79.81% # Number of outstanding writes to NVM (Count)
system.far_mem_ctrl0.dram.pendingWrites::35           35      2.74%     82.55% # Number of outstanding writes to NVM (Count)
system.far_mem_ctrl0.dram.pendingWrites::36           31      2.43%     84.98% # Number of outstanding writes to NVM (Count)
system.far_mem_ctrl0.dram.pendingWrites::37           28      2.19%     87.17% # Number of outstanding writes to NVM (Count)
system.far_mem_ctrl0.dram.pendingWrites::38           30      2.35%     89.51% # Number of outstanding writes to NVM (Count)
system.far_mem_ctrl0.dram.pendingWrites::39           26      2.03%     91.55% # Number of outstanding writes to NVM (Count)
system.far_mem_ctrl0.dram.pendingWrites::40           20      1.56%     93.11% # Number of outstanding writes to NVM (Count)
system.far_mem_ctrl0.dram.pendingWrites::41           15      1.17%     94.29% # Number of outstanding writes to NVM (Count)
system.far_mem_ctrl0.dram.pendingWrites::42           17      1.33%     95.62% # Number of outstanding writes to NVM (Count)
system.far_mem_ctrl0.dram.pendingWrites::43           13      1.02%     96.64% # Number of outstanding writes to NVM (Count)
system.far_mem_ctrl0.dram.pendingWrites::44           10      0.78%     97.42% # Number of outstanding writes to NVM (Count)
system.far_mem_ctrl0.dram.pendingWrites::45            8      0.63%     98.04% # Number of outstanding writes to NVM (Count)
system.far_mem_ctrl0.dram.pendingWrites::46            6      0.47%     98.51% # Number of outstanding writes to NVM (Count)
system.far_mem_ctrl0.dram.pendingWrites::47            7      0.55%     99.06% # Number of outstanding writes to NVM (Count)
system.far_mem_ctrl0.dram.pendingWrites::48            5      0.39%     99.45% # Number of outstanding writes to NVM (Count)
system.far_mem_ctrl0.dram.pendingWrites::49            3      0.23%     99.69% # Number of outstanding writes to NVM (Count)
system.far_mem_ctrl0.dram.pendingWrites::50            2      0.16%     99.84% # Number of outstanding writes to NVM (Count)
system.far_mem_ctrl0.dram.pendingWrites::51            2      0.16%    100.00% # Number of outstanding writes to NVM (Count)
system.far_mem_ctrl0.dram.pendingWrites::total         1278                       # Number of outstanding writes to NVM (Count)
system.far_mem_ctrl0.dram.bytesPerBank::samples         6415                       # Bytes read within a bank before loading new bank (Byte)
system.far_mem_ctrl0.dram.bytesPerBank::mean           64                       # Bytes read within a bank before loading new bank (Byte)
system.far_mem_ctrl0.dram.bytesPerBank::gmean    64.000000                       # Bytes read within a bank before loading new bank (Byte)
system.far_mem_ctrl0.dram.bytesPerBank::64         6415    100.00%    100.00% # Bytes read within a bank before loading new bank (Byte)
system.far_mem_ctrl0.dram.bytesPerBank::total         6415                       # Bytes read within a bank before loading new bank (Byte)
system.far_mem_ctrl0.dram.power_state.pwrStateResidencyTicks::UNDEFINED    100025200                       # Cumulative time (in ticks) in various power states (Tick)
system.far_mem_ctrl0.power_state.pwrStateResidencyTicks::UNDEFINED    100025200                       # Cumulative time (in ticks) in various power states (Tick)
system.far_mem_ctrl1.avgPriority_writebacks::samples      6481.00                       # Average QoS priority value for accepted requests (Count)
system.far_mem_ctrl1.priorityMinLatency  0.000000317492                       # per QoS priority minimum request to response latency (Second)
system.far_mem_ctrl1.priorityMaxLatency  0.000030698890                       # per QoS priority maximum request to response latency (Second)
system.far_mem_ctrl1.numReadWriteTurnArounds           79                       # Number of turnarounds from READ to WRITE (Count)
system.far_mem_ctrl1.numWriteReadTurnArounds           80                       # Number of turnarounds from WRITE to READ (Count)
system.far_mem_ctrl1.numStayReadState           16676                       # Number of times bus staying in READ state (Count)
system.far_mem_ctrl1.numStayWriteState           1198                       # Number of times bus staying in WRITE state (Count)
system.far_mem_ctrl1.readReqs                    5108                       # Number of read requests accepted (Count)
system.far_mem_ctrl1.writeReqs                   1373                       # Number of write requests accepted (Count)
system.far_mem_ctrl1.readBursts                  5108                       # Number of controller read bursts, including those serviced by the write queue (Count)
system.far_mem_ctrl1.writeBursts                 1373                       # Number of controller write bursts, including those merged in the write queue (Count)
system.far_mem_ctrl1.servicedByWrQ                  0                       # Number of controller read bursts serviced by the write queue (Count)
system.far_mem_ctrl1.mergedWrBursts                 0                       # Number of controller write bursts merged with an existing one (Count)
system.far_mem_ctrl1.neitherReadNorWriteReqs            0                       # Number of requests that are neither read nor write (Count)
system.far_mem_ctrl1.avgRdQLen                 109.97                       # Average read queue length when enqueuing ((Count/Tick))
system.far_mem_ctrl1.avgWrQLen                  92.62                       # Average write queue length when enqueuing ((Count/Tick))
system.far_mem_ctrl1.numRdRetry                  3431                       # Number of times read queue was full causing retry (Count)
system.far_mem_ctrl1.numWrRetry                     0                       # Number of times write queue was full causing retry (Count)
system.far_mem_ctrl1.readPktSize::0                 0                       # Read request sizes (log2) (Count)
system.far_mem_ctrl1.readPktSize::1                 0                       # Read request sizes (log2) (Count)
system.far_mem_ctrl1.readPktSize::2                 0                       # Read request sizes (log2) (Count)
system.far_mem_ctrl1.readPktSize::3                 0                       # Read request sizes (log2) (Count)
system.far_mem_ctrl1.readPktSize::4                 0                       # Read request sizes (log2) (Count)
system.far_mem_ctrl1.readPktSize::5                 0                       # Read request sizes (log2) (Count)
system.far_mem_ctrl1.readPktSize::6              5108                       # Read request sizes (log2) (Count)
system.far_mem_ctrl1.writePktSize::0                0                       # Write request sizes (log2) (Count)
system.far_mem_ctrl1.writePktSize::1                0                       # Write request sizes (log2) (Count)
system.far_mem_ctrl1.writePktSize::2                0                       # Write request sizes (log2) (Count)
system.far_mem_ctrl1.writePktSize::3                0                       # Write request sizes (log2) (Count)
system.far_mem_ctrl1.writePktSize::4                0                       # Write request sizes (log2) (Count)
system.far_mem_ctrl1.writePktSize::5                0                       # Write request sizes (log2) (Count)
system.far_mem_ctrl1.writePktSize::6             1373                       # Write request sizes (log2) (Count)
system.far_mem_ctrl1.rdQLenPdf::0                   1                       # What read queue length does an incoming req see (Count)
system.far_mem_ctrl1.rdQLenPdf::1                   1                       # What read queue length does an incoming req see (Count)
system.far_mem_ctrl1.rdQLenPdf::2                   1                       # What read queue length does an incoming req see (Count)
system.far_mem_ctrl1.rdQLenPdf::3                   1                       # What read queue length does an incoming req see (Count)
system.far_mem_ctrl1.rdQLenPdf::4                   1                       # What read queue length does an incoming req see (Count)
system.far_mem_ctrl1.rdQLenPdf::5                   1                       # What read queue length does an incoming req see (Count)
system.far_mem_ctrl1.rdQLenPdf::6                   1                       # What read queue length does an incoming req see (Count)
system.far_mem_ctrl1.rdQLenPdf::7                   1                       # What read queue length does an incoming req see (Count)
system.far_mem_ctrl1.rdQLenPdf::8                   1                       # What read queue length does an incoming req see (Count)
system.far_mem_ctrl1.rdQLenPdf::9                   3                       # What read queue length does an incoming req see (Count)
system.far_mem_ctrl1.rdQLenPdf::10                  3                       # What read queue length does an incoming req see (Count)
system.far_mem_ctrl1.rdQLenPdf::11                  2                       # What read queue length does an incoming req see (Count)
system.far_mem_ctrl1.rdQLenPdf::12                  2                       # What read queue length does an incoming req see (Count)
system.far_mem_ctrl1.rdQLenPdf::13                  1                       # What read queue length does an incoming req see (Count)
system.far_mem_ctrl1.rdQLenPdf::14                  1                       # What read queue length does an incoming req see (Count)
system.far_mem_ctrl1.rdQLenPdf::15                  2                       # What read queue length does an incoming req see (Count)
system.far_mem_ctrl1.rdQLenPdf::16                  3                       # What read queue length does an incoming req see (Count)
system.far_mem_ctrl1.rdQLenPdf::17                  5                       # What read queue length does an incoming req see (Count)
system.far_mem_ctrl1.rdQLenPdf::18                  7                       # What read queue length does an incoming req see (Count)
system.far_mem_ctrl1.rdQLenPdf::19                 14                       # What read queue length does an incoming req see (Count)
system.far_mem_ctrl1.rdQLenPdf::20                 16                       # What read queue length does an incoming req see (Count)
system.far_mem_ctrl1.rdQLenPdf::21                 25                       # What read queue length does an incoming req see (Count)
system.far_mem_ctrl1.rdQLenPdf::22                 48                       # What read queue length does an incoming req see (Count)
system.far_mem_ctrl1.rdQLenPdf::23                 51                       # What read queue length does an incoming req see (Count)
system.far_mem_ctrl1.rdQLenPdf::24                 48                       # What read queue length does an incoming req see (Count)
system.far_mem_ctrl1.rdQLenPdf::25                 77                       # What read queue length does an incoming req see (Count)
system.far_mem_ctrl1.rdQLenPdf::26                 90                       # What read queue length does an incoming req see (Count)
system.far_mem_ctrl1.rdQLenPdf::27                 80                       # What read queue length does an incoming req see (Count)
system.far_mem_ctrl1.rdQLenPdf::28                 81                       # What read queue length does an incoming req see (Count)
system.far_mem_ctrl1.rdQLenPdf::29                 81                       # What read queue length does an incoming req see (Count)
system.far_mem_ctrl1.rdQLenPdf::30                102                       # What read queue length does an incoming req see (Count)
system.far_mem_ctrl1.rdQLenPdf::31                 98                       # What read queue length does an incoming req see (Count)
system.far_mem_ctrl1.rdQLenPdf::32                 97                       # What read queue length does an incoming req see (Count)
system.far_mem_ctrl1.rdQLenPdf::33                 77                       # What read queue length does an incoming req see (Count)
system.far_mem_ctrl1.rdQLenPdf::34                 95                       # What read queue length does an incoming req see (Count)
system.far_mem_ctrl1.rdQLenPdf::35                 94                       # What read queue length does an incoming req see (Count)
system.far_mem_ctrl1.rdQLenPdf::36                 70                       # What read queue length does an incoming req see (Count)
system.far_mem_ctrl1.rdQLenPdf::37                 53                       # What read queue length does an incoming req see (Count)
system.far_mem_ctrl1.rdQLenPdf::38                 36                       # What read queue length does an incoming req see (Count)
system.far_mem_ctrl1.rdQLenPdf::39                 23                       # What read queue length does an incoming req see (Count)
system.far_mem_ctrl1.rdQLenPdf::40                 12                       # What read queue length does an incoming req see (Count)
system.far_mem_ctrl1.rdQLenPdf::41                  6                       # What read queue length does an incoming req see (Count)
system.far_mem_ctrl1.rdQLenPdf::42                  7                       # What read queue length does an incoming req see (Count)
system.far_mem_ctrl1.rdQLenPdf::43                  2                       # What read queue length does an incoming req see (Count)
system.far_mem_ctrl1.rdQLenPdf::44                  1                       # What read queue length does an incoming req see (Count)
system.far_mem_ctrl1.rdQLenPdf::45                  1                       # What read queue length does an incoming req see (Count)
system.far_mem_ctrl1.rdQLenPdf::46                  1                       # What read queue length does an incoming req see (Count)
system.far_mem_ctrl1.rdQLenPdf::47                  1                       # What read queue length does an incoming req see (Count)
system.far_mem_ctrl1.rdQLenPdf::48                  1                       # What read queue length does an incoming req see (Count)
system.far_mem_ctrl1.rdQLenPdf::49                  1                       # What read queue length does an incoming req see (Count)
system.far_mem_ctrl1.rdQLenPdf::50                  6                       # What read queue length does an incoming req see (Count)
system.far_mem_ctrl1.rdQLenPdf::51                  7                       # What read queue length does an incoming req see (Count)
system.far_mem_ctrl1.rdQLenPdf::52                  2                       # What read queue length does an incoming req see (Count)
system.far_mem_ctrl1.rdQLenPdf::53                  4                       # What read queue length does an incoming req see (Count)
system.far_mem_ctrl1.rdQLenPdf::54                  5                       # What read queue length does an incoming req see (Count)
system.far_mem_ctrl1.rdQLenPdf::55                  7                       # What read queue length does an incoming req see (Count)
system.far_mem_ctrl1.rdQLenPdf::56                  3                       # What read queue length does an incoming req see (Count)
system.far_mem_ctrl1.rdQLenPdf::57                  1                       # What read queue length does an incoming req see (Count)
system.far_mem_ctrl1.rdQLenPdf::58                  1                       # What read queue length does an incoming req see (Count)
system.far_mem_ctrl1.rdQLenPdf::59                  1                       # What read queue length does an incoming req see (Count)
system.far_mem_ctrl1.rdQLenPdf::60                  3                       # What read queue length does an incoming req see (Count)
system.far_mem_ctrl1.rdQLenPdf::61                  7                       # What read queue length does an incoming req see (Count)
system.far_mem_ctrl1.rdQLenPdf::62                  9                       # What read queue length does an incoming req see (Count)
[...]
system.mem_ctrl0.numHotMisses                    2728                       # stat (Unspecified)
system.mem_ctrl0.numRdMissClean                  4407                       # stat (Unspecified)
system.mem_ctrl0.numRdMissDirty                   713                       # stat (Unspecified)
system.mem_ctrl0.numRdHit                           0                       # stat (Unspecified)
system.mem_ctrl0.numWrMissClean                  4495                       # stat (Unspecified)
system.mem_ctrl0.numWrMissDirty                   705                       # stat (Unspecified)
system.mem_ctrl0.numWrHit                           0                       # stat (Unspecified)
system.mem_ctrl0.numRdHitDirty                      0                       # stat (Unspecified)
system.mem_ctrl0.numRdHitClean                      0                       # stat (Unspecified)
system.mem_ctrl0.numWrHitDirty                      0                       # stat (Unspecified)
system.mem_ctrl0.numWrHitClean                      0                       # stat (Unspecified)
system.mem_ctrl0.power_state.pwrStateResidencyTicks::UNDEFINED    100025200                       # Cumulative time (in ticks) in various power states (Tick)
system.mem_ctrl1.bytesRead::generators0        158336                       # Number of bytes read from this memory (Byte)
system.mem_ctrl1.bytesRead::generators1        160384                       # Number of bytes read from this memory (Byte)
system.mem_ctrl1.bytesRead::total              318720                       # Number of bytes read from this memory (Byte)
system.mem_ctrl1.bytesWritten::generators0       171584                       # Number of bytes written to this memory (Byte)
system.mem_ctrl1.bytesWritten::generators1       165312                       # Number of bytes written to this memory (Byte)
system.mem_ctrl1.bytesWritten::total           336896                       # Number of bytes written to this memory (Byte)
system.mem_ctrl1.numReads::generators0           2474                       # Number of read requests responded to by this memory (Count)
system.mem_ctrl1.numReads::generators1           2506                       # Number of read requests responded to by this memory (Count)
system.mem_ctrl1.numReads::total                 4980                       # Number of read requests responded to by this memory (Count)
system.mem_ctrl1.numWrites::generators0          2681                       # Number of write requests responded to by this memory (Count)
system.mem_ctrl1.numWrites::generators1          2583                       # Number of write requests responded to by this memory (Count)
system.mem_ctrl1.numWrites::total                5264                       # Number of write requests responded to by this memory (Count)
system.mem_ctrl1.bwRead::generators0       1582961094                       # Total read bandwidth from this memory ((Byte/Second))
system.mem_ctrl1.bwRead::generators1       1603435934                       # Total read bandwidth from this memory ((Byte/Second))
system.mem_ctrl1.bwRead::total             3186397028                       # Total read bandwidth from this memory ((Byte/Second))
system.mem_ctrl1.bwWrite::generators0      1715407717                       # Write bandwidth from this memory ((Byte/Second))
system.mem_ctrl1.bwWrite::generators1      1652703519                       # Write bandwidth from this memory ((Byte/Second))
system.mem_ctrl1.bwWrite::total            3368111236                       # Write bandwidth from this memory ((Byte/Second))
system.mem_ctrl1.bwTotal::generators0      3298368811                       # Total bandwidth to/from this memory ((Byte/Second))
system.mem_ctrl1.bwTotal::generators1      3256139453                       # Total bandwidth to/from this memory ((Byte/Second))
system.mem_ctrl1.bwTotal::total            6554508264                       # Total bandwidth to/from this memory ((Byte/Second))
system.mem_ctrl1.readReqs                        5233                       # Number of read requests accepted (Count)
system.mem_ctrl1.writeReqs                       5264                       # Number of write requests accepted (Count)
system.mem_ctrl1.servicedByWrQ                      0                       # Number of controller read bursts serviced by the write queue (Count)
system.mem_ctrl1.mergedWrBursts                     0                       # Number of controller write bursts merged with an existing one (Count)
system.mem_ctrl1.numRdRetry                      2221                       # Number of times read queue was full causing retry (Count)
system.mem_ctrl1.numWrRetry                      2254                       # Number of times write queue was full causing retry (Count)
system.mem_ctrl1.readPktSize::0                     0                       # Read request sizes (log2) (Count)
system.mem_ctrl1.readPktSize::1                     0                       # Read request sizes (log2) (Count)
system.mem_ctrl1.readPktSize::2                     0                       # Read request sizes (log2) (Count)
system.mem_ctrl1.readPktSize::3                     0                       # Read request sizes (log2) (Count)
system.mem_ctrl1.readPktSize::4                     0                       # Read request sizes (log2) (Count)
system.mem_ctrl1.readPktSize::5                     0                       # Read request sizes (log2) (Count)
system.mem_ctrl1.readPktSize::6                  5233                       # Read request sizes (log2) (Count)
system.mem_ctrl1.writePktSize::0                    0                       # Write request sizes (log2) (Count)
system.mem_ctrl1.writePktSize::1                    0                       # Write request sizes (log2) (Count)
system.mem_ctrl1.writePktSize::2                    0                       # Write request sizes (log2) (Count)
system.mem_ctrl1.writePktSize::3                    0                       # Write request sizes (log2) (Count)
system.mem_ctrl1.writePktSize::4                    0                       # Write request sizes (log2) (Count)
system.mem_ctrl1.writePktSize::5                    0                       # Write request sizes (log2) (Count)
system.mem_ctrl1.writePktSize::6                 5264                       # Write request sizes (log2) (Count)
system.mem_ctrl1.bytesReadWrQ                       0                       # Total number of bytes read from write queue (Byte)
system.mem_ctrl1.bytesReadSys                  334912                       # Total read bytes from the system interface side (Byte)
system.mem_ctrl1.bytesWrittenSys               336896                       # Total written bytes from the system interface side (Byte)
system.mem_ctrl1.avgRdBWSys              3348276234.38893366                       # Average system read bandwidth in Byte/s ((Byte/Second))
system.mem_ctrl1.avgWrBWSys              3368111235.96853590                       # Average system write bandwidth in Byte/s ((Byte/Second))
system.mem_ctrl1.totGap                  11570480347318323200                       # Total gap between requests (Tick)
system.mem_ctrl1.avgGap                  1102265442251912.25                       # Average gap between requests ((Tick/Count))
system.mem_ctrl1.avgORBLen                   212.4279                       # Average ORB length ((Count/Tick))
system.mem_ctrl1.avgLocRdQLenStrt                0.00                       # Average local read queue length ((Count/Tick))
system.mem_ctrl1.avgLocWrQLenStrt                0.00                       # Average local write queue length ((Count/Tick))
system.mem_ctrl1.avgFarRdQLenStrt               93.42                       # Average far read queue length ((Count/Tick))
system.mem_ctrl1.avgFarWrQLenStrt                0.00                       # Average far write queue length ((Count/Tick))
system.mem_ctrl1.avgLocRdQLenEnq                 1.00                       # Average local read queue length when enqueuing ((Count/Tick))
system.mem_ctrl1.avgLocWrQLenEnq                 1.00                       # Average local write queue length when enqueuing ((Count/Tick))
system.mem_ctrl1.avgFarRdQLenEnq                94.58                       # Average far read queue length when enqueuing ((Count/Tick))
system.mem_ctrl1.avgFarWrQLenEnq                 0.99                       # Average far write queue length when enqueuing ((Count/Tick))
system.mem_ctrl1.numWrBacks                      1373                       # Total number of write backs from DRAM cache to main memory (Unspecified)
system.mem_ctrl1.totNumConf                       113                       # Total number of packets conflicted on DRAM cache (Unspecified)
system.mem_ctrl1.totNumORBFull                   4475                       # Total number of packets ORB full (Unspecified)
system.mem_ctrl1.totNumCRBFull                      0                       # Total number of packets conflicted yet couldn't enter confBuffer (Unspecified)
system.mem_ctrl1.maxNumConf                        10                       # Maximum number of packets conflicted on DRAM cache (Unspecified)
system.mem_ctrl1.sentLocRdPort                  10497                       # stat (Unspecified)
system.mem_ctrl1.sentLocWrPort                  10241                       # stat (Unspecified)
system.mem_ctrl1.failedLocRdPort                   14                       # stat (Unspecified)
system.mem_ctrl1.failedLocWrPort                    0                       # stat (Unspecified)
system.mem_ctrl1.recvdRdPort                        0                       # stat (Unspecified)
system.mem_ctrl1.sentFarRdPort                   5108                       # stat (Unspecified)
system.mem_ctrl1.sentFarWrPort                   1373                       # stat (Unspecified)
system.mem_ctrl1.failedFarRdPort                 3431                       # stat (Unspecified)
system.mem_ctrl1.failedFarWrPort                    0                       # stat (Unspecified)
system.mem_ctrl1.totPktsServiceTime          20567763                       # stat (Unspecified)
system.mem_ctrl1.totPktsORBTime              20285867                       # stat (Unspecified)
system.mem_ctrl1.totTimeFarRdtoSend           8745875                       # stat (Unspecified)
system.mem_ctrl1.totTimeFarRdtoRecv          10772485                       # stat (Unspecified)
system.mem_ctrl1.totTimeFarWrtoSend                 0                       # stat (Unspecified)
system.mem_ctrl1.totTimeInLocRead              658124                       # stat (Unspecified)
system.mem_ctrl1.totTimeInLocWrite             102420                       # stat (Unspecified)
system.mem_ctrl1.totTimeInFarRead            19519910                       # stat (Unspecified)
system.mem_ctrl1.numTotHits                         0                       # stat (Unspecified)
system.mem_ctrl1.numTotMisses                   10497                       # stat (Unspecified)
system.mem_ctrl1.numColdMisses                   7765                       # stat (Unspecified)
system.mem_ctrl1.numHotMisses                    2732                       # stat (Unspecified)
system.mem_ctrl1.numRdMissClean                  4557                       # stat (Unspecified)
system.mem_ctrl1.numRdMissDirty                   676                       # stat (Unspecified)
system.mem_ctrl1.numRdHit                           0                       # stat (Unspecified)
system.mem_ctrl1.numWrMissClean                  4565                       # stat (Unspecified)
system.mem_ctrl1.numWrMissDirty                   699                       # stat (Unspecified)
system.mem_ctrl1.numWrHit                           0                       # stat (Unspecified)
system.mem_ctrl1.numRdHitDirty                      0                       # stat (Unspecified)
system.mem_ctrl1.numRdHitClean                      0                       # stat (Unspecified)
system.mem_ctrl1.numWrHitDirty                      0                       # stat (Unspecified)
system.mem_ctrl1.numWrHitClean                      0                       # stat (Unspecified)
system.mem_ctrl1.power_state.pwrStateResidencyTicks::UNDEFINED    100025200                       # Cumulative time (in ticks) in various power states (Tick)
system.membus.transDist::ReadReq                10358                       # Transaction distribution (Count)
system.membus.transDist::ReadResp               10014                       # Transaction distribution (Count)
system.membus.transDist::WriteReq               10467                       # Transaction distribution (Count)
system.membus.transDist::WriteResp              10463                       # Transaction distribution (Count)
system.membus.pktCount_system.generators0.port::system.mem_ctrl0.port        10364                       # Packet count per connected requestor and responder (Count)
system.membus.pktCount_system.generators0.port::system.mem_ctrl1.port        10430                       # Packet count per connected requestor and responder (Count)
system.membus.pktCount_system.generators0.port::total        20794                       # Packet count per connected requestor and responder (Count)
system.membus.pktCount_system.generators1.port::system.mem_ctrl0.port        10192                       # Packet count per connected requestor and responder (Count)
system.membus.pktCount_system.generators1.port::system.mem_ctrl1.port        10316                       # Packet count per connected requestor and responder (Count)
system.membus.pktCount_system.generators1.port::total        20508                       # Packet count per connected requestor and responder (Count)
system.membus.pktCount::total                   41302                       # Packet count per connected requestor and responder (Count)
system.membus.pktSize_system.generators0.port::system.mem_ctrl0.port       330560                       # Cumulative packet size per connected requestor and responder (Byte)
system.membus.pktSize_system.generators0.port::system.mem_ctrl1.port       330048                       # Cumulative packet size per connected requestor and responder (Byte)
system.membus.pktSize_system.generators0.port::total       660608                       # Cumulative packet size per connected requestor and responder (Byte)
system.membus.pktSize_system.generators1.port::system.mem_ctrl0.port       324544                       # Cumulative packet size per connected requestor and responder (Byte)
system.membus.pktSize_system.generators1.port::system.mem_ctrl1.port       325632                       # Cumulative packet size per connected requestor and responder (Byte)
system.membus.pktSize_system.generators1.port::total       650176                       # Cumulative packet size per connected requestor and responder (Byte)
system.membus.pktSize::total                  1310784                       # Cumulative packet size per connected requestor and responder (Byte)
system.membus.power_state.pwrStateResidencyTicks::UNDEFINED    100025200                       # Cumulative time (in ticks) in various power states (Tick)
system.membus.reqLayer0.occupancy             3763880                       # Layer occupancy (ticks) (Tick)
system.membus.reqLayer0.utilization               0.0                       # Layer utilization (Ratio)
system.membus.reqLayer1.occupancy             4494040                       # Layer occupancy (ticks) (Tick)
system.membus.reqLayer1.utilization               0.0                       # Layer utilization (Ratio)
system.membus.respLayer0.occupancy            3571466                       # Layer occupancy (ticks) (Tick)
system.membus.respLayer0.utilization              0.0                       # Layer utilization (Ratio)
system.membus.respLayer1.occupancy            3540143                       # Layer occupancy (ticks) (Tick)
system.membus.respLayer1.utilization              0.0                       # Layer utilization (Ratio)
system.scheds0.readReqs                         10320                       # Number of read requests received by the MemScheduler (Count)
system.scheds0.writeReqs                        10235                       # Number of write requests received by the MemScheduler (Count)
system.scheds0.bankConflicts                        0                       # Number of bank conflicts (Count)
system.scheds0.failedArbitrations                   0                       # Number of times an arbitration failed to send a request to MemCtrl (Count)
system.scheds0.totalArbitrations                    0                       # Total number of arbitrations over the request queues in the MemScheduler (Count)
system.scheds0.totalRQDelay                   2561080                       # Total queueing delay read requests have experienced in the MemScheduler (Count)
system.scheds0.totalWQDelay                   2643743                       # Total queueing delay write requests have experienced in the MemScheduler (Count)
system.scheds0.totalRespDelay                 4571998                       # total queueing delay in the response queue experienced by the MemScheduler (Count)
system.scheds0.avgRQDelay                      248.17                       # Average queueing delay read requests have experienced in the MemScheduler (Count)
system.scheds0.avgWQDelay                      258.30                       # Average queueing delay write requests have experienced in the MemScheduler (Count)
system.scheds0.avgRespDelay                    443.02                       # Average queueing delay in the response queue experienced by the MemScheduler (Count)
system.scheds0.power_state.pwrStateResidencyTicks::UNDEFINED    100025200                       # Cumulative time (in ticks) in various power states (Tick)
system.scheds1.readReqs                         10497                       # Number of read requests received by the MemScheduler (Count)
system.scheds1.writeReqs                        10241                       # Number of write requests received by the MemScheduler (Count)
system.scheds1.bankConflicts                        0                       # Number of bank conflicts (Count)
system.scheds1.failedArbitrations                   0                       # Number of times an arbitration failed to send a request to MemCtrl (Count)
system.scheds1.totalArbitrations                    0                       # Total number of arbitrations over the request queues in the MemScheduler (Count)
system.scheds1.totalRQDelay                   2432360                       # Total queueing delay read requests have experienced in the MemScheduler (Count)
system.scheds1.totalWQDelay                   2649058                       # Total queueing delay write requests have experienced in the MemScheduler (Count)
system.scheds1.totalRespDelay                 4531200                       # total queueing delay in the response queue experienced by the MemScheduler (Count)
system.scheds1.avgRQDelay                      231.72                       # Average queueing delay read requests have experienced in the MemScheduler (Count)
system.scheds1.avgWQDelay                      258.67                       # Average queueing delay write requests have experienced in the MemScheduler (Count)
system.scheds1.avgRespDelay                    431.67                       # Average queueing delay in the response queue experienced by the MemScheduler (Count)
system.scheds1.power_state.pwrStateResidencyTicks::UNDEFINED    100025200                       # Cumulative time (in ticks) in various power states (Tick)
system.workload.inst.arm                            0                       # number of arm instructions executed (Count)
system.workload.inst.quiesce                        0                       # number of quiesce instructions executed (Count)

---------- End Simulation Statistics   ----------
