
---------- Begin Simulation Statistics ----------
simSeconds                                   0.000100                       # Number of seconds simulated (Second)
simTicks                                    100053000                       # Number of ticks simulated (Tick)
finalTick                                   100053000                       # Number of ticks from beginning of simulation (restored from checkpoints and never reset) (Tick)
simFreq                                  1000000000000                       # The number of ticks per simulated second ((Tick/Second))
hostSeconds                                      0.11                       # Real time elapsed on the host (Second)
hostTickRate                                947468406                       # The number of ticks simulated per host second (ticks/s) ((Tick/Second))
hostMemory                                    3511204                       # Number of bytes of host memory used (Byte)
system.clk_domain.clock                           200                       # Clock period in ticks (Tick)
system.clk_domain.voltage_domain.voltage            1                       # Voltage in Volts (Volt)
system.far_mem_ctrl.avgPriority_writebacks::samples      5642.00                       # Average QoS priority value for accepted requests (Count)
system.far_mem_ctrl.priorityMinLatency   0.000000317492                       # per QoS priority minimum request to response latency (Second)
system.far_mem_ctrl.priorityMaxLatency   0.000003025492                       # per QoS priority maximum request to response latency (Second)
system.far_mem_ctrl.numReadWriteTurnArounds            0                       # Number of turnarounds from READ to WRITE (Count)
system.far_mem_ctrl.numWriteReadTurnArounds            0                       # Number of turnarounds from WRITE to READ (Count)
system.far_mem_ctrl.numStayReadState            16837                       # Number of times bus staying in READ state (Count)
system.far_mem_ctrl.numStayWriteState               0                       # Number of times bus staying in WRITE state (Count)
system.far_mem_ctrl.readReqs                     5642                       # Number of read requests accepted (Count)
system.far_mem_ctrl.writeReqs                       0                       # Number of write requests accepted (Count)
system.far_mem_ctrl.readBursts                   5642                       # Number of controller read bursts, including those serviced by the write queue (Count)
system.far_mem_ctrl.writeBursts                     0                       # Number of controller write bursts, including those merged in the write queue (Count)
system.far_mem_ctrl.servicedByWrQ                   0                       # Number of controller read bursts serviced by the write queue (Count)
system.far_mem_ctrl.mergedWrBursts                  0                       # Number of controller write bursts merged with an existing one (Count)
system.far_mem_ctrl.neitherReadNorWriteReqs            0                       # Number of requests that are neither read nor write (Count)
system.far_mem_ctrl.avgRdQLen                   17.63                       # Average read queue length when enqueuing ((Count/Tick))
system.far_mem_ctrl.avgWrQLen                    0.00                       # Average write queue length when enqueuing ((Count/Tick))
system.far_mem_ctrl.numRdRetry                      0                       # Number of times read queue was full causing retry (Count)
system.far_mem_ctrl.numWrRetry                      0                       # Number of times write queue was full causing retry (Count)
system.far_mem_ctrl.readPktSize::0                  0                       # Read request sizes (log2) (Count)
system.far_mem_ctrl.readPktSize::1                  0                       # Read request sizes (log2) (Count)
system.far_mem_ctrl.readPktSize::2                  0                       # Read request sizes (log2) (Count)
system.far_mem_ctrl.readPktSize::3                  0                       # Read request sizes (log2) (Count)
system.far_mem_ctrl.readPktSize::4                  0                       # Read request sizes (log2) (Count)
system.far_mem_ctrl.readPktSize::5                  0                       # Read request sizes (log2) (Count)
system.far_mem_ctrl.readPktSize::6               5642                       # Read request sizes (log2) (Count)
system.far_mem_ctrl.writePktSize::0                 0                       # Write request sizes (log2) (Count)
system.far_mem_ctrl.writePktSize::1                 0                       # Write request sizes (log2) (Count)
system.far_mem_ctrl.writePktSize::2                 0                       # Write request sizes (log2) (Count)
system.far_mem_ctrl.writePktSize::3                 0                       # Write request sizes (log2) (Count)
system.far_mem_ctrl.writePktSize::4                 0                       # Write request sizes (log2) (Count)
system.far_mem_ctrl.writePktSize::5                 0                       # Write request sizes (log2) (Count)
system.far_mem_ctrl.writePktSize::6                 0                       # Write request sizes (log2) (Count)
system.far_mem_ctrl.rdQLenPdf::0                    5                       # What read queue length does an incoming req see (Count)
system.far_mem_ctrl.rdQLenPdf::1                    9                       # What read queue length does an incoming req see (Count)
system.far_mem_ctrl.rdQLenPdf::2                   16                       # What read queue length does an incoming req see (Count)
system.far_mem_ctrl.rdQLenPdf::3                   21                       # What read queue length does an incoming req see (Count)
system.far_mem_ctrl.rdQLenPdf::4                   33                       # What read queue length does an incoming req see (Count)
system.far_mem_ctrl.rdQLenPdf::5                   57                       # What read queue length does an incoming req see (Count)
system.far_mem_ctrl.rdQLenPdf::6                   99                       # What read queue length does an incoming req see (Count)
system.far_mem_ctrl.rdQLenPdf::7                  166                       # What read queue length does an incoming req see (Count)
system.far_mem_ctrl.rdQLenPdf::8                  245                       # What read queue length does an incoming req see (Count)
system.far_mem_ctrl.rdQLenPdf::9                  319                       # What read queue length does an incoming req see (Count)
system.far_mem_ctrl.rdQLenPdf::10                 382                       # What read queue length does an incoming req see (Count)
system.far_mem_ctrl.rdQLenPdf::11                 403                       # What read queue length does an incoming req see (Count)
system.far_mem_ctrl.rdQLenPdf::12                 452                       # What read queue length does an incoming req see (Count)
system.far_mem_ctrl.rdQLenPdf::13                 469                       # What read queue length does an incoming req see (Count)
system.far_mem_ctrl.rdQLenPdf::14                 487                       # What read queue length does an incoming req see (Count)
system.far_mem_ctrl.rdQLenPdf::15                 538                       # What read queue length does an incoming req see (Count)
system.far_mem_ctrl.rdQLenPdf::16                 500                       # What read queue length does an incoming req see (Count)
system.far_mem_ctrl.rdQLenPdf::17                 467                       # What read queue length does an incoming req see (Count)
system.far_mem_ctrl.rdQLenPdf::18                 376                       # What read queue length does an incoming req see (Count)
system.far_mem_ctrl.rdQLenPdf::19                 251                       # What read queue length does an incoming req see (Count)
system.far_mem_ctrl.rdQLenPdf::20                 151                       # What read queue length does an incoming req see (Count)
system.far_mem_ctrl.rdQLenPdf::21                  74                       # What read queue length does an incoming req see (Count)
system.far_mem_ctrl.rdQLenPdf::22                  42                       # What read queue length does an incoming req see (Count)
system.far_mem_ctrl.rdQLenPdf::23                  32                       # What read queue length does an incoming req see (Count)
system.far_mem_ctrl.rdQLenPdf::24                  12                       # What read queue length does an incoming req see (Count)
system.far_mem_ctrl.rdQLenPdf::25                  12                       # What read queue length does an incoming req see (Count)
system.far_mem_ctrl.rdQLenPdf::26                  10                       # What read queue length does an incoming req see (Count)
system.far_mem_ctrl.rdQLenPdf::27                   8                       # What read queue length does an incoming req see (Count)
system.far_mem_ctrl.rdQLenPdf::28                   3                       # What read queue length does an incoming req see (Count)
system.far_mem_ctrl.rdQLenPdf::29                   2                       # What read queue length does an incoming req see (Count)
system.far_mem_ctrl.rdQLenPdf::30                   1                       # What read queue length does an incoming req see (Count)
system.far_mem_ctrl.rdQLenPdf::31                   0                       # What read queue length does an incoming req see (Count)
system.far_mem_ctrl.rdQLenPdf::32                   0                       # What read queue length does an incoming req see (Count)
system.far_mem_ctrl.rdQLenPdf::33                   0                       # What read queue length does an incoming req see (Count)
system.far_mem_ctrl.rdQLenPdf::34                   0                       # What read queue length does an incoming req see (Count)
system.far_mem_ctrl.rdQLenPdf::35                   0                       # What read queue length does an incoming req see (Count)
system.far_mem_ctrl.rdQLenPdf::36                   0                       # What read queue length does an incoming req see (Count)
system.far_mem_ctrl.rdQLenPdf::37                   0                       # What read queue length does an incoming req see (Count)
system.far_mem_ctrl.rdQLenPdf::38                   0                       # What read queue length does an incoming req see (Count)
system.far_mem_ctrl.rdQLenPdf::39                   0                       # What read queue length does an incoming req see (Count)
system.far_mem_ctrl.rdQLenPdf::40                   0                       # What read queue length does an incoming req see (Count)
system.far_mem_ctrl.rdQLenPdf::41                   0                       # What read queue length does an incoming req see (Count)
system.far_mem_ctrl.rdQLenPdf::42                   0                       # What read queue length does an incoming req see (Count)
system.far_mem_ctrl.rdQLenPdf::43                   0                       # What read queue length does an incoming req see (Count)
system.far_mem_ctrl.rdQLenPdf::44                   0                       # What read queue length does an incoming req see (Count)
system.far_mem_ctrl.rdQLenPdf::45                   0                       # What read queue length does an incoming req see (Count)
system.far_mem_ctrl.rdQLenPdf::46                   0                       # What read queue length does an incoming req see (Count)
system.far_mem_ctrl.rdQLenPdf::47                   0                       # What read queue length does an incoming req see (Count)
system.far_mem_ctrl.rdQLenPdf::48                   0                       # What read queue length does an incoming req see (Count)
system.far_mem_ctrl.rdQLenPdf::49                   0                       # What read queue length does an incoming req see (Count)
system.far_mem_ctrl.rdQLenPdf::50                   0                       # What read queue length does an incoming req see (Count)
system.far_mem_ctrl.rdQLenPdf::51                   0                       # What read queue length does an incoming req see (Count)
system.far_mem_ctrl.rdQLenPdf::52                   0                       # What read queue length does an incoming req see (Count)
system.far_mem_ctrl.rdQLenPdf::53                   0                       # What read queue length does an incoming req see (Count)
system.far_mem_ctrl.rdQLenPdf::54                   0                       # What read queue length does an incoming req see (Count)
system.far_mem_ctrl.rdQLenPdf::55                   0                       # What read queue length does an incoming req see (Count)
system.far_mem_ctrl.rdQLenPdf::56                   0                       # What read queue length does an incoming req see (Count)
system.far_mem_ctrl.rdQLenPdf::57                   0                       # What read queue length does an incoming req see (Count)
system.far_mem_ctrl.rdQLenPdf::58                   0                       # What read queue length does an incoming req see (Count)
system.far_mem_ctrl.rdQLenPdf::59                   0                       # What read queue length does an incoming req see (Count)
system.far_mem_ctrl.rdQLenPdf::60                   0                       # What read queue length does an incoming req see (Count)
system.far_mem_ctrl.rdQLenPdf::61                   0                       # What read queue length does an incoming req see (Count)
system.far_mem_ctrl.rdQLenPdf::62                   0                       # What read queue length does an incoming req see (Count)
system.far_mem_ctrl.rdQLenPdf::63                   0                       # What read queue length does an incoming req see (Count)
system.far_mem_ctrl.rdQLenPdf::64                   0                       # What read queue length does an incoming req see (Count)
system.far_mem_ctrl.rdQLenPdf::65                   0                       # What read queue length does an incoming req see (Count)
system.far_mem_ctrl.rdQLenPdf::66                   0                       # What read queue length does an incoming req see (Count)
system.far_mem_ctrl.rdQLenPdf::67                   0                       # What read queue length does an incoming req see (Count)
system.far_mem_ctrl.rdQLenPdf::68                   0                       # What read queue length does an incoming req see (Count)
system.far_mem_ctrl.rdQLenPdf::69                   0                       # What read queue length does an incoming req see (Count)
system.far_mem_ctrl.rdQLenPdf::70                   0                       # What read queue length does an incoming req see (Count)
system.far_mem_ctrl.rdQLenPdf::71                   0                       # What read queue length does an incoming req see (Count)
system.far_mem_ctrl.rdQLenPdf::72                   0                       # What read queue length does an incoming req see (Count)
system.far_mem_ctrl.rdQLenPdf::73                   0                       # What read queue length does an incoming req see (Count)
system.far_mem_ctrl.rdQLenPdf::74                   0                       # What read queue length does an incoming req see (Count)
system.far_mem_ctrl.rdQLenPdf::75                   0                       # What read queue length does an incoming req see (Count)
system.far_mem_ctrl.rdQLenPdf::76                   0                       # What read queue length does an incoming req see (Count)
system.far_mem_ctrl.rdQLenPdf::77                   0                       # What read queue length does an incoming req see (Count)
system.far_mem_ctrl.rdQLenPdf::78                   0                       # What read queue length does an incoming req see (Count)
system.far_mem_ctrl.rdQLenPdf::79                   0                       # What read queue length does an incoming req see (Count)
system.far_mem_ctrl.rdQLenPdf::80                   0                       # What read queue length does an incoming req see (Count)
system.far_mem_ctrl.rdQLenPdf::81                   0                       # What read queue length does an incoming req see (Count)
system.far_mem_ctrl.rdQLenPdf::82                   0                       # What read queue length does an incoming req see (Count)
system.far_mem_ctrl.rdQLenPdf::83                   0                       # What read queue length does an incoming req see (Count)
system.far_mem_ctrl.rdQLenPdf::84                   0                       # What read queue length does an incoming req see (Count)
system.far_mem_ctrl.rdQLenPdf::85                   0                       # What read queue length does an incoming req see (Count)
system.far_mem_ctrl.rdQLenPdf::86                   0                       # What read queue length does an incoming req see (Count)
system.far_mem_ctrl.rdQLenPdf::87                   0                       # What read queue length does an incoming req see (Count)
system.far_mem_ctrl.rdQLenPdf::88                   0                       # What read queue length does an incoming req see (Count)
system.far_mem_ctrl.rdQLenPdf::89                   0                       # What read queue length does an incoming req see (Count)
system.far_mem_ctrl.rdQLenPdf::90                   0                       # What read queue length does an incoming req see (Count)
system.far_mem_ctrl.rdQLenPdf::91                   0                       # What read queue length does an incoming req see (Count)
system.far_mem_ctrl.rdQLenPdf::92                   0                       # What read queue length does an incoming req see (Count)
system.far_mem_ctrl.rdQLenPdf::93                   0                       # What read queue length does an incoming req see (Count)
system.far_mem_ctrl.rdQLenPdf::94                   0                       # What read queue length does an incoming req see (Count)
system.far_mem_ctrl.rdQLenPdf::95                   0                       # What read queue length does an incoming req see (Count)
system.far_mem_ctrl.rdQLenPdf::96                   0                       # What read queue length does an incoming req see (Count)
system.far_mem_ctrl.rdQLenPdf::97                   0                       # What read queue length does an incoming req see (Count)
system.far_mem_ctrl.rdQLenPdf::98                   0                       # What read queue length does an incoming req see (Count)
system.far_mem_ctrl.rdQLenPdf::99                   0                       # What read queue length does an incoming req see (Count)
system.far_mem_ctrl.rdQLenPdf::100                  0                       # What read queue length does an incoming req see (Count)
system.far_mem_ctrl.rdQLenPdf::101                  0                       # What read queue length does an incoming req see (Count)
system.far_mem_ctrl.rdQLenPdf::102                  0                       # What read queue length does an incoming req see (Count)
system.far_mem_ctrl.rdQLenPdf::103                  0                       # What read queue length does an incoming req see (Count)
system.far_mem_ctrl.rdQLenPdf::104                  0                       # What read queue length does an incoming req see (Count)
system.far_mem_ctrl.rdQLenPdf::105                  0                       # What read queue length does an incoming req see (Count)
system.far_mem_ctrl.rdQLenPdf::106                  0                       # What read queue length does an incoming req see (Count)
system.far_mem_ctrl.rdQLenPdf::107                  0                       # What read queue length does an incoming req see (Count)
system.far_mem_ctrl.rdQLenPdf::108                  0                       # What read queue length does an incoming req see (Count)
system.far_mem_ctrl.rdQLenPdf::109                  0                       # What read queue length does an incoming req see (Count)
system.far_mem_ctrl.rdQLenPdf::110                  0                       # What read queue length does an incoming req see (Count)
system.far_mem_ctrl.rdQLenPdf::111                  0                       # What read queue length does an incoming req see (Count)
system.far_mem_ctrl.rdQLenPdf::112                  0                       # What read queue length does an incoming req see (Count)
system.far_mem_ctrl.rdQLenPdf::113                  0                       # What read queue length does an incoming req see (Count)
system.far_mem_ctrl.rdQLenPdf::114                  0                       # What read queue length does an incoming req see (Count)
system.far_mem_ctrl.rdQLenPdf::115                  0                       # What read queue length does an incoming req see (Count)
system.far_mem_ctrl.rdQLenPdf::116                  0                       # What read queue length does an incoming req see (Count)
system.far_mem_ctrl.rdQLenPdf::117                  0                       # What read queue length does an incoming req see (Count)
system.far_mem_ctrl.rdQLenPdf::118                  0                       # What read queue length does an incoming req see (Count)
system.far_mem_ctrl.rdQLenPdf::119                  0                       # What read queue length does an incoming req see (Count)
system.far_mem_ctrl.rdQLenPdf::120                  0                       # What read queue length does an incoming req see (Count)
system.far_mem_ctrl.rdQLenPdf::121                  0                       # What read queue length does an incoming req see (Count)
system.far_mem_ctrl.rdQLenPdf::122                  0                       # What read queue length does an incoming req see (Count)
system.far_mem_ctrl.rdQLenPdf::123                  0                       # What read queue length does an incoming req see (Count)
system.far_mem_ctrl.rdQLenPdf::124                  0                       # What read queue length does an incoming req see (Count)
system.far_mem_ctrl.rdQLenPdf::125                  0                       # What read queue length does an incoming req see (Count)
system.far_mem_ctrl.rdQLenPdf::126                  0                       # What read queue length does an incoming req see (Count)
system.far_mem_ctrl.rdQLenPdf::127                  0                       # What read queue length does an incoming req see (Count)
system.far_mem_ctrl.wrQLenPdf::0                    0                       # What write queue length does an incoming req see (Count)
system.far_mem_ctrl.wrQLenPdf::1                    0                       # What write queue length does an incoming req see (Count)
system.far_mem_ctrl.wrQLenPdf::2                    0                       # What write queue length does an incoming req see (Count)
system.far_mem_ctrl.wrQLenPdf::3                    0                       # What write queue length does an incoming req see (Count)
system.far_mem_ctrl.wrQLenPdf::4                    0                       # What write queue length does an incoming req see (Count)
system.far_mem_ctrl.wrQLenPdf::5                    0                       # What write queue length does an incoming req see (Count)
system.far_mem_ctrl.wrQLenPdf::6                    0                       # What write queue length does an incoming req see (Count)
system.far_mem_ctrl.wrQLenPdf::7                    0                       # What write queue length does an incoming req see (Count)
system.far_mem_ctrl.wrQLenPdf::8                    0                       # What write queue length does an incoming req see (Count)
system.far_mem_ctrl.wrQLenPdf::9                    0                       # What write queue length does an incoming req see (Count)
system.far_mem_ctrl.wrQLenPdf::10                   0                       # What write queue length does an incoming req see (Count)
system.far_mem_ctrl.wrQLenPdf::11                   0                       # What write queue length does an incoming req see (Count)
system.far_mem_ctrl.wrQLenPdf::12                   0                       # What write queue length does an incoming req see (Count)
system.far_mem_ctrl.wrQLenPdf::13                   0                       # What write queue length does an incoming req see (Count)
system.far_mem_ctrl.wrQLenPdf::14                   0                       # What write queue length does an incoming req see (Count)
system.far_mem_ctrl.wrQLenPdf::15                   0                       # What write queue length does an incoming req see (Count)
system.far_mem_ctrl.wrQLenPdf::16                   0                       # What write queue length does an incoming req see (Count)
system.far_mem_ctrl.wrQLenPdf::17                   0                       # What write queue length does an incoming req see (Count)
system.far_mem_ctrl.wrQLenPdf::18                   0                       # What write queue length does an incoming req see (Count)
system.far_mem_ctrl.wrQLenPdf::19                   0                       # What write queue length does an incoming req see (Count)
system.far_mem_ctrl.wrQLenPdf::20                   0                       # What write queue length does an incoming req see (Count)
system.far_mem_ctrl.wrQLenPdf::21                   0                       # What write queue length does an incoming req see (Count)
system.far_mem_ctrl.wrQLenPdf::22                   0                       # What write queue length does an incoming req see (Count)
system.far_mem_ctrl.wrQLenPdf::23                   0                       # What write queue length does an incoming req see (Count)
system.far_mem_ctrl.wrQLenPdf::24                   0                       # What write queue length does an incoming req see (Count)
system.far_mem_ctrl.wrQLenPdf::25                   0                       # What write queue length does an incoming req see (Count)
system.far_mem_ctrl.wrQLenPdf::26                   0                       # What write queue length does an incoming req see (Count)
system.far_mem_ctrl.wrQLenPdf::27                   0                       # What write queue length does an incoming req see (Count)
system.far_mem_ctrl.wrQLenPdf::28                   0                       # What write queue length does an incoming req see (Count)
system.far_mem_ctrl.wrQLenPdf::29                   0                       # What write queue length does an incoming req see (Count)
system.far_mem_ctrl.wrQLenPdf::30                   0                       # What write queue length does an incoming req see (Count)
system.far_mem_ctrl.wrQLenPdf::31                   0                       # What write queue length does an incoming req see (Count)
system.far_mem_ctrl.wrQLenPdf::32                   0                       # What write queue length does an incoming req see (Count)
system.far_mem_ctrl.wrQLenPdf::33                   0                       # What write queue length does an incoming req see (Count)
system.far_mem_ctrl.wrQLenPdf::34                   0                       # What write queue length does an incoming req see (Count)
system.far_mem_ctrl.wrQLenPdf::35                   0                       # What write queue length does an incoming req see (Count)
system.far_mem_ctrl.wrQLenPdf::36                   0                       # What write queue length does an incoming req see (Count)
system.far_mem_ctrl.wrQLenPdf::37                   0                       # What write queue length does an incoming req see (Count)
system.far_mem_ctrl.wrQLenPdf::38                   0                       # What write queue length does an incoming req see (Count)
system.far_mem_ctrl.wrQLenPdf::39                   0                       # What write queue length does an incoming req see (Count)
system.far_mem_ctrl.wrQLenPdf::40                   0                       # What write queue length does an incoming req see (Count)
system.far_mem_ctrl.wrQLenPdf::41                   0                       # What write queue length does an incoming req see (Count)
system.far_mem_ctrl.wrQLenPdf::42                   0                       # What write queue length does an incoming req see (Count)
system.far_mem_ctrl.wrQLenPdf::43                   0                       # What write queue length does an incoming req see (Count)
system.far_mem_ctrl.wrQLenPdf::44                   0                       # What write queue length does an incoming req see (Count)
system.far_mem_ctrl.wrQLenPdf::45                   0                       # What write queue length does an incoming req see (Count)
system.far_mem_ctrl.wrQLenPdf::46                   0                       # What write queue length does an incoming req see (Count)
system.far_mem_ctrl.wrQLenPdf::47                   0                       # What write queue length does an incoming req see (Count)
system.far_mem_ctrl.wrQLenPdf::48                   0                       # What write queue length does an incoming req see (Count)
system.far_mem_ctrl.wrQLenPdf::49                   0                       # What write queue length does an incoming req see (Count)
system.far_mem_ctrl.wrQLenPdf::50                   0                       # What write queue length does an incoming req see (Count)
system.far_mem_ctrl.wrQLenPdf::51                   0                       # What write queue length does an incoming req see (Count)
system.far_mem_ctrl.wrQLenPdf::52                   0                       # What write queue length does an incoming req see (Count)
system.far_mem_ctrl.wrQLenPdf::53                   0                       # What write queue length does an incoming req see (Count)
system.far_mem_ctrl.wrQLenPdf::54                   0                       # What write queue length does an incoming req see (Count)
system.far_mem_ctrl.wrQLenPdf::55                   0                       # What write queue length does an incoming req see (Count)
system.far_mem_ctrl.wrQLenPdf::56                   0                       # What write queue length does an incoming req see (Count)
system.far_mem_ctrl.wrQLenPdf::57                   0                       # What write queue length does an incoming req see (Count)
system.far_mem_ctrl.wrQLenPdf::58                   0                       # What write queue length does an incoming req see (Count)
system.far_mem_ctrl.wrQLenPdf::59                   0                       # What write queue length does an incoming req see (Count)
system.far_mem_ctrl.wrQLenPdf::60                   0                       # What write queue length does an incoming req see (Count)
system.far_mem_ctrl.wrQLenPdf::61                   0                       # What write queue length does an incoming req see (Count)
system.far_mem_ctrl.wrQLenPdf::62                   0                       # What write queue length does an incoming req see (Count)
system.far_mem_ctrl.wrQLenPdf::63                   0                       # What write queue length does an incoming req see (Count)
system.far_mem_ctrl.wrQLenPdf::64                   0                       # What write queue length does an incoming req see (Count)
system.far_mem_ctrl.wrQLenPdf::65                   0                       # What write queue length does an incoming req see (Count)
system.far_mem_ctrl.wrQLenPdf::66                   0                       # What write queue length does an incoming req see (Count)
system.far_mem_ctrl.wrQLenPdf::67                   0                       # What write queue length does an incoming req see (Count)
system.far_mem_ctrl.wrQLenPdf::68                   0                       # What write queue length does an incoming req see (Count)
system.far_mem_ctrl.wrQLenPdf::69                   0                       # What write queue length does an incoming req see (Count)
system.far_mem_ctrl.wrQLenPdf::70                   0                       # What write queue length does an incoming req see (Count)
system.far_mem_ctrl.wrQLenPdf::71                   0                       # What write queue length does an incoming req see (Count)
system.far_mem_ctrl.wrQLenPdf::72                   0                       # What write queue length does an incoming req see (Count)
system.far_mem_ctrl.wrQLenPdf::73                   0                       # What write queue length does an incoming req see (Count)
system.far_mem_ctrl.wrQLenPdf::74                   0                       # What write queue length does an incoming req see (Count)
system.far_mem_ctrl.wrQLenPdf::75                   0                       # What write queue length does an incoming req see (Count)
system.far_mem_ctrl.wrQLenPdf::76                   0                       # What write queue length does an incoming req see (Count)
system.far_mem_ctrl.wrQLenPdf::77                   0                       # What write queue length does an incoming req see (Count)
system.far_mem_ctrl.wrQLenPdf::78                   0                       # What write queue length does an incoming req see (Count)
system.far_mem_ctrl.wrQLenPdf::79                   0                       # What write queue length does an incoming req see (Count)
system.far_mem_ctrl.wrQLenPdf::80                   0                       # What write queue length does an incoming req see (Count)
system.far_mem_ctrl.wrQLenPdf::81                   0                       # What write queue length does an incoming req see (Count)
system.far_mem_ctrl.wrQLenPdf::82                   0                       # What write queue length does an incoming req see (Count)
system.far_mem_ctrl.wrQLenPdf::83                   0                       # What write queue length does an incoming req see (Count)
system.far_mem_ctrl.wrQLenPdf::84                   0                       # What write queue length does an incoming req see (Count)
system.far_mem_ctrl.wrQLenPdf::85                   0                       # What write queue length does an incoming req see (Count)
system.far_mem_ctrl.wrQLenPdf::86                   0                       # What write queue length does an incoming req see (Count)
system.far_mem_ctrl.wrQLenPdf::87                   0                       # What write queue length does an incoming req see (Count)
system.far_mem_ctrl.wrQLenPdf::88                   0                       # What write queue length does an incoming req see (Count)
system.far_mem_ctrl.wrQLenPdf::89                   0                       # What write queue length does an incoming req see (Count)
system.far_mem_ctrl.wrQLenPdf::90                   0                       # What write queue length does an incoming req see (Count)
system.far_mem_ctrl.wrQLenPdf::91                   0                       # What write queue length does an incoming req see (Count)
system.far_mem_ctrl.wrQLenPdf::92                   0                       # What write queue length does an incoming req see (Count)
system.far_mem_ctrl.wrQLenPdf::93                   0                       # What write queue length does an incoming req see (Count)
system.far_mem_ctrl.wrQLenPdf::94                   0                       # What write queue length does an incoming req see (Count)
system.far_mem_ctrl.wrQLenPdf::95                   0                       # What write queue length does an incoming req see (Count)
system.far_mem_ctrl.wrQLenPdf::96                   0                       # What write queue length does an incoming req see (Count)
system.far_mem_ctrl.wrQLenPdf::97                   0                       # What write queue length does an incoming req see (Count)
system.far_mem_ctrl.wrQLenPdf::98                   0                       # What write queue length does an incoming req see (Count)
system.far_mem_ctrl.wrQLenPdf::99                   0                       # What write queue length does an incoming req see (Count)
system.far_mem_ctrl.wrQLenPdf::100                  0                       # What write queue length does an incoming req see (Count)
system.far_mem_ctrl.wrQLenPdf::101                  0                       # What write queue length does an incoming req see (Count)
system.far_mem_ctrl.wrQLenPdf::102                  0                       # What write queue length does an incoming req see (Count)
system.far_mem_ctrl.wrQLenPdf::103                  0                       # What write queue length does an incoming req see (Count)
system.far_mem_ctrl.wrQLenPdf::104                  0                       # What write queue length does an incoming req see (Count)
system.far_mem_ctrl.wrQLenPdf::105                  0                       # What write queue length does an incoming req see (Count)
system.far_mem_ctrl.wrQLenPdf::106                  0                       # What write queue length does an incoming req see (Count)
system.far_mem_ctrl.wrQLenPdf::107                  0                       # What write queue length does an incoming req see (Count)
system.far_mem_ctrl.wrQLenPdf::108                  0                       # What write queue length does an incoming req see (Count)
system.far_mem_ctrl.wrQLenPdf::109                  0                       # What write queue length does an incoming req see (Count)
system.far_mem_ctrl.wrQLenPdf::110                  0                       # What write queue length does an incoming req see (Count)
system.far_mem_ctrl.wrQLenPdf::111                  0                       # What write queue length does an incoming req see (Count)
system.far_mem_ctrl.wrQLenPdf::112                  0                       # What write queue length does an incoming req see (Count)
system.far_mem_ctrl.wrQLenPdf::113                  0                       # What write queue length does an incoming req see (Count)
system.far_mem_ctrl.wrQLenPdf::114                  0                       # What write queue length does an incoming req see (Count)
system.far_mem_ctrl.wrQLenPdf::115                  0                       # What write queue length does an incoming req see (Count)
system.far_mem_ctrl.wrQLenPdf::116                  0                       # What write queue length does an incoming req see (Count)
system.far_mem_ctrl.wrQLenPdf::117                  0                       # What write queue length does an incoming req see (Count)
system.far_mem_ctrl.wrQLenPdf::118                  0                       # What write queue length does an incoming req see (Count)
system.far_mem_ctrl.wrQLenPdf::119                  0                       # What write queue length does an incoming req see (Count)
system.far_mem_ctrl.wrQLenPdf::120                  0                       # What write queue length does an incoming req see (Count)
system.far_mem_ctrl.wrQLenPdf::121                  0                       # What write queue length does an incoming req see (Count)
system.far_mem_ctrl.wrQLenPdf::122                  0                       # What write queue length does an incoming req see (Count)
system.far_mem_ctrl.wrQLenPdf::123                  0                       # What write queue length does an incoming req see (Count)
system.far_mem_ctrl.wrQLenPdf::124                  0                       # What write queue length does an incoming req see (Count)
system.far_mem_ctrl.wrQLenPdf::125                  0                       # What write queue length does an incoming req see (Count)
system.far_mem_ctrl.wrQLenPdf::126                  0                       # What write queue length does an incoming req see (Count)
system.far_mem_ctrl.wrQLenPdf::127                  0                       # What write queue length does an incoming req see (Count)
system.far_mem_ctrl.bytesReadWrQ                    0                       # Total number of bytes read from write queue (Byte)
system.far_mem_ctrl.bytesReadSys               361088                       # Total read bytes from the system interface side (Byte)
system.far_mem_ctrl.bytesWrittenSys                 0                       # Total written bytes from the system interface side (Byte)
system.far_mem_ctrl.avgRdBWSys           3608967247.35889959                       # Average system read bandwidth in Byte/s ((Byte/Second))
system.far_mem_ctrl.avgWrBWSys             0.00000000                       # Average system write bandwidth in Byte/s ((Byte/Second))
system.far_mem_ctrl.totGap                   99894000                       # Total gap between requests (Tick)
system.far_mem_ctrl.avgGap                   17705.42                       # Average gap between requests ((Tick/Count))
system.far_mem_ctrl.requestorReadBytes::writebacks       360000                       # Per-requestor bytes read from memory (Byte)
system.far_mem_ctrl.requestorReadRate::writebacks 3598093010.704326629639                       # Per-requestor bytes read from memory rate ((Byte/Second))
system.far_mem_ctrl.requestorReadAccesses::writebacks         5642                       # Per-requestor read serviced memory accesses (Count)
system.far_mem_ctrl.requestorReadTotalLat::writebacks   1425961140                       # Per-requestor read total memory access latency (Tick)
system.far_mem_ctrl.requestorReadAvgLat::writebacks    252740.37                       # Per-requestor read average memory access latency ((Tick/Count))
system.far_mem_ctrl.dram.bytesRead::writebacks       359936                       # Number of bytes read from this memory (Byte)
system.far_mem_ctrl.dram.bytesRead::total       359936                       # Number of bytes read from this memory (Byte)
system.far_mem_ctrl.dram.numReads::writebacks         5624                       # Number of read requests responded to by this memory (Count)
system.far_mem_ctrl.dram.numReads::total         5624                       # Number of read requests responded to by this memory (Count)
system.far_mem_ctrl.dram.bwRead::writebacks   3597453350                       # Total read bandwidth from this memory ((Byte/Second))
system.far_mem_ctrl.dram.bwRead::total     3597453350                       # Total read bandwidth from this memory ((Byte/Second))
system.far_mem_ctrl.dram.bwTotal::writebacks   3597453350                       # Total bandwidth to/from this memory ((Byte/Second))
system.far_mem_ctrl.dram.bwTotal::total    3597453350                       # Total bandwidth to/from this memory ((Byte/Second))
system.far_mem_ctrl.dram.readBursts              5625                       # Number of NVM read bursts (Count)
system.far_mem_ctrl.dram.writeBursts                0                       # Number of NVM write bursts (Count)
system.far_mem_ctrl.dram.perBankRdBursts::0          363                       # Per bank write bursts (Count)
system.far_mem_ctrl.dram.perBankRdBursts::1          347                       # Per bank write bursts (Count)
system.far_mem_ctrl.dram.perBankRdBursts::2          358                       # Per bank write bursts (Count)
system.far_mem_ctrl.dram.perBankRdBursts::3          362                       # Per bank write bursts (Count)
system.far_mem_ctrl.dram.perBankRdBursts::4          330                       # Per bank write bursts (Count)
system.far_mem_ctrl.dram.perBankRdBursts::5          319                       # Per bank write bursts (Count)
system.far_mem_ctrl.dram.perBankRdBursts::6          369                       # Per bank write bursts (Count)
system.far_mem_ctrl.dram.perBankRdBursts::7          368                       # Per bank write bursts (Count)
system.far_mem_ctrl.dram.perBankRdBursts::8          359                       # Per bank write bursts (Count)
system.far_mem_ctrl.dram.perBankRdBursts::9          327                       # Per bank write bursts (Count)
system.far_mem_ctrl.dram.perBankRdBursts::10          363                       # Per bank write bursts (Count)
system.far_mem_ctrl.dram.perBankRdBursts::11          365                       # Per bank write bursts (Count)
system.far_mem_ctrl.dram.perBankRdBursts::12          334                       # Per bank write bursts (Count)
system.far_mem_ctrl.dram.perBankRdBursts::13          354                       # Per bank write bursts (Count)
system.far_mem_ctrl.dram.perBankRdBursts::14          370                       # Per bank write bursts (Count)
system.far_mem_ctrl.dram.perBankRdBursts::15          337                       # Per bank write bursts (Count)
system.far_mem_ctrl.dram.perBankWrBursts::0            0                       # Per bank write bursts (Count)
system.far_mem_ctrl.dram.perBankWrBursts::1            0                       # Per bank write bursts (Count)
system.far_mem_ctrl.dram.perBankWrBursts::2            0                       # Per bank write bursts (Count)
system.far_mem_ctrl.dram.perBankWrBursts::3            0                       # Per bank write bursts (Count)
system.far_mem_ctrl.dram.perBankWrBursts::4            0                       # Per bank write bursts (Count)
system.far_mem_ctrl.dram.perBankWrBursts::5            0                       # Per bank write bursts (Count)
system.far_mem_ctrl.dram.perBankWrBursts::6            0                       # Per bank write bursts (Count)
system.far_mem_ctrl.dram.perBankWrBursts::7            0                       # Per bank write bursts (Count)
system.far_mem_ctrl.dram.perBankWrBursts::8            0                       # Per bank write bursts (Count)
system.far_mem_ctrl.dram.perBankWrBursts::9            0                       # Per bank write bursts (Count)
system.far_mem_ctrl.dram.perBankWrBursts::10            0                       # Per bank write bursts (Count)
system.far_mem_ctrl.dram.perBankWrBursts::11            0                       # Per bank write bursts (Count)
system.far_mem_ctrl.dram.perBankWrBursts::12            0                       # Per bank write bursts (Count)
system.far_mem_ctrl.dram.perBankWrBursts::13            0                       # Per bank write bursts (Count)
system.far_mem_ctrl.dram.perBankWrBursts::14            0                       # Per bank write bursts (Count)
system.far_mem_ctrl.dram.perBankWrBursts::15            0                       # Per bank write bursts (Count)
system.far_mem_ctrl.dram.totQLat           1327568640                       # Total ticks spent queuing (Tick)
system.far_mem_ctrl.dram.totBusLat           18742500                       # Total ticks spent in databus transfers (Tick)
system.far_mem_ctrl.dram.totMemAccLat      1425961140                       # Total ticks spent from burst creation until serviced by the NVM (Tick)
system.far_mem_ctrl.dram.avgQLat            236012.20                       # Average queueing delay per NVM burst ((Tick/Count))
system.far_mem_ctrl.dram.avgBusLat            3332.00                       # Average bus latency per NVM burst ((Tick/Count))
system.far_mem_ctrl.dram.avgMemAccLat       253504.20                       # Average memory access latency per NVM burst ((Tick/Count))
system.far_mem_ctrl.dram.avgRdBW              3598.09                       # Average DRAM read bandwidth in MiBytes/s ((Byte/Second))
system.far_mem_ctrl.dram.avgWrBW                 0.00                       # Average DRAM write bandwidth in MiBytes/s ((Byte/Second))
system.far_mem_ctrl.dram.peakBW              19207.00                       # Theoretical peak bandwidth in MiByte/s ((Byte/Second))
system.far_mem_ctrl.dram.busUtil                18.73                       # NVM Data bus utilization in percentage (Ratio)
system.far_mem_ctrl.dram.busUtilRead            18.73                       # NVM Data bus read utilization in percentage (Ratio)
system.far_mem_ctrl.dram.busUtilWrite            0.00                       # NVM Data bus write utilization in percentage (Ratio)
system.far_mem_ctrl.dram.pendingReads::samples         5625                       # Reads issued to NVM for which data has not been transferred (Count)
system.far_mem_ctrl.dram.pendingReads::mean    12.950044                       # Reads issued to NVM for which data has not been transferred (Count)
system.far_mem_ctrl.dram.pendingReads::stdev     4.042074                       # Reads issued to NVM for which data has not been transferred (Count)
system.far_mem_ctrl.dram.pendingReads::0            5      0.09%      0.09% # Reads issued to NVM for which data has not been transferred (Count)
system.far_mem_ctrl.dram.pendingReads::1           11      0.20%      0.28% # Reads issued to NVM for which data has not been transferred (Count)
system.far_mem_ctrl.dram.pendingReads::2           20      0.36%      0.64% # Reads issued to NVM for which data has not been transferred (Count)
system.far_mem_ctrl.dram.pendingReads::3           24      0.43%      1.07% # Reads issued to NVM for which data has not been transferred (Count)
system.far_mem_ctrl.dram.pendingReads::4           43      0.76%      1.83% # Reads issued to NVM for which data has not been transferred (Count)
system.far_mem_ctrl.dram.pendingReads::5           76      1.35%      3.18% # Reads issued to NVM for which data has not been transferred (Count)
system.far_mem_ctrl.dram.pendingReads::6          132      2.35%      5.53% # Reads issued to NVM for which data has not been transferred (Count)
system.far_mem_ctrl.dram.pendingReads::7          202      3.59%      9.12% # Reads issued to NVM for which data has not been transferred (Count)
system.far_mem_ctrl.dram.pendingReads::8          286      5.08%     14.20% # Reads issued to NVM for which data has not been transferred (Count)
system.far_mem_ctrl.dram.pendingReads::9          355      6.31%     20.52% # Reads issued to NVM for which data has not been transferred (Count)
system.far_mem_ctrl.dram.pendingReads::10          408      7.25%     27.77% # Reads issued to NVM for which data has not been transferred (Count)
system.far_mem_ctrl.dram.pendingReads::11          441      7.84%     35.61% # Reads issued to NVM for which data has not been transferred (Count)
system.far_mem_ctrl.dram.pendingReads::12          499      8.87%     44.48% # Reads issued to NVM for which data has not been transferred (Count)
system.far_mem_ctrl.dram.pendingReads::13          529      9.40%     53.88% # Reads issued to NVM for which data has not been transferred (Count)
system.far_mem_ctrl.dram.pendingReads::14          532      9.46%     63.34% # Reads issued to NVM for which data has not been transferred (Count)
system.far_mem_ctrl.dram.pendingReads::15          514      9.14%     72.48% # Reads issued to NVM for which data has not been transferred (Count)
system.far_mem_ctrl.dram.pendingReads::16          462      8.21%     80.69% # Reads issued to NVM for which data has not been transferred (Count)
system.far_mem_ctrl.dram.pendingReads::17          389      6.92%     87.61% # Reads issued to NVM for which data has not been transferred (Count)
system.far_mem_ctrl.dram.pendingReads::18          288      5.12%     92.73% # Reads issued to NVM for which data has not been transferred (Count)
system.far_mem_ctrl.dram.pendingReads::19          178      3.16%     95.89% # Reads issued to NVM for which data has not been transferred (Count)
system.far_mem_ctrl.dram.pendingReads::20           97      1.72%     97.62% # Reads issued to NVM for which data has not been transferred (Count)
system.far_mem_ctrl.dram.pendingReads::21           56      1.00%     98.61% # Reads issued to NVM for which data has not been transferred (Count)
system.far_mem_ctrl.dram.pendingReads::22           25      0.44%     99.06% # Reads issued to NVM for which data has not been transferred (Count)
system.far_mem_ctrl.dram.pendingReads::23           17      0.30%     99.36% # Reads issued to NVM for which data has not been transferred (Count)
system.far_mem_ctrl.dram.pendingReads::24           12      0.21%     99.57% # Reads issued to NVM for which data has not been transferred (Count)
system.far_mem_ctrl.dram.pendingReads::25           15      0.27%     99.84% # Reads issued to NVM for which data has not been transferred (Count)
system.far_mem_ctrl.dram.pendingReads::26            8      0.14%     99.98% # Reads issued to NVM for which data has not been transferred (Count)
system.far_mem_ctrl.dram.pendingReads::27            1      0.02%    100.00% # Reads issued to NVM for which data has not been transferred (Count)
system.far_mem_ctrl.dram.pendingReads::total         5625                       # Reads issued to NVM for which data has not been transferred (Count)
system.far_mem_ctrl.dram.bytesPerBank::samples         5642                       # Bytes read within a bank before loading new bank (Byte)
system.far_mem_ctrl.dram.bytesPerBank::mean           64                       # Bytes read within a bank before loading new bank (Byte)
system.far_mem_ctrl.dram.bytesPerBank::gmean    64.000000                       # Bytes read within a bank before loading new bank (Byte)
system.far_mem_ctrl.dram.bytesPerBank::64         5642    100.00%    100.00% # Bytes read within a bank before loading new bank (Byte)
system.far_mem_ctrl.dram.bytesPerBank::total         5642                       # Bytes read within a bank before loading new bank (Byte)
system.far_mem_ctrl.dram.power_state.pwrStateResidencyTicks::UNDEFINED    100053000                       # Cumulative time (in ticks) in various power states (Tick)
system.far_mem_ctrl.power_state.pwrStateResidencyTicks::UNDEFINED    100053000                       # Cumulative time (in ticks) in various power states (Tick)
system.generators.numSuppressed                     0                       # Number of suppressed packets to non-memory space (Count)
system.generators.numPackets                     5877                       # Number of packets generated (Count)
system.generators.numRetries                     2974                       # Number of retries (Count)
system.generators.retryTicks                 53721772                       # Time spent waiting due to back-pressure (Tick)
system.generators.bytesRead                    359680                       # Number of bytes read (Byte)
system.generators.bytesWritten                      0                       # Number of bytes written (Byte)
system.generators.totalReadLatency        23805997989                       # Total latency of read requests (Tick)
system.generators.totalWriteLatency                 0                       # Total latency of write requests (Tick)
system.generators.totalReads                     5620                       # Total num of reads (Count)
system.generators.totalWrites                       0                       # Total num of writes (Count)
system.generators.avgReadLatency         4235942.702669                       # Avg latency of read requests ((Tick/Count))
system.generators.avgWriteLatency                 nan                       # Avg latency of write requests ((Tick/Count))
system.generators.readBW                 3594894705.805923                       # Read bandwidth ((Byte/Second))
system.generators.writeBW                           0                       # Write bandwidth ((Byte/Second))
system.generators.power_state.pwrStateResidencyTicks::UNDEFINED    100053000                       # Cumulative time (in ticks) in various power states (Tick)
system.loc_mem_ctrlrs.avgPriority_writebacks::samples     11296.00                       # Average QoS priority value for accepted requests (Count)
system.loc_mem_ctrlrs.priorityMinLatency 0.000000037080                       # per QoS priority minimum request to response latency (Second)
system.loc_mem_ctrlrs.priorityMaxLatency 0.000010060000                       # per QoS priority maximum request to response latency (Second)
system.loc_mem_ctrlrs.numReadWriteTurnArounds          347                       # Number of turnarounds from READ to WRITE (Count)
system.loc_mem_ctrlrs.numWriteReadTurnArounds          348                       # Number of turnarounds from WRITE to READ (Count)
system.loc_mem_ctrlrs.numStayReadState           5377                       # Number of times bus staying in READ state (Count)
system.loc_mem_ctrlrs.numStayWriteState          5308                       # Number of times bus staying in WRITE state (Count)
system.loc_mem_ctrlrs.readReqs                   5674                       # Number of read requests accepted (Count)
system.loc_mem_ctrlrs.writeReqs                  5622                       # Number of write requests accepted (Count)
system.loc_mem_ctrlrs.readBursts                 5674                       # Number of controller read bursts, including those serviced by the write queue (Count)
system.loc_mem_ctrlrs.writeBursts                5622                       # Number of controller write bursts, including those merged in the write queue (Count)
system.loc_mem_ctrlrs.servicedByWrQ                 0                       # Number of controller read bursts serviced by the write queue (Count)
system.loc_mem_ctrlrs.mergedWrBursts                0                       # Number of controller write bursts merged with an existing one (Count)
system.loc_mem_ctrlrs.neitherReadNorWriteReqs            0                       # Number of requests that are neither read nor write (Count)
system.loc_mem_ctrlrs.avgRdQLen                 31.63                       # Average read queue length when enqueuing ((Count/Tick))
system.loc_mem_ctrlrs.avgWrQLen                 61.40                       # Average write queue length when enqueuing ((Count/Tick))
system.loc_mem_ctrlrs.numRdRetry                 6883                       # Number of times read queue was full causing retry (Count)
system.loc_mem_ctrlrs.numWrRetry                 4075                       # Number of times write queue was full causing retry (Count)
system.loc_mem_ctrlrs.readPktSize::0                0                       # Read request sizes (log2) (Count)
system.loc_mem_ctrlrs.readPktSize::1                0                       # Read request sizes (log2) (Count)
system.loc_mem_ctrlrs.readPktSize::2                0                       # Read request sizes (log2) (Count)
system.loc_mem_ctrlrs.readPktSize::3                0                       # Read request sizes (log2) (Count)
system.loc_mem_ctrlrs.readPktSize::4                0                       # Read request sizes (log2) (Count)
system.loc_mem_ctrlrs.readPktSize::5                0                       # Read request sizes (log2) (Count)
system.loc_mem_ctrlrs.readPktSize::6             5674                       # Read request sizes (log2) (Count)
system.loc_mem_ctrlrs.writePktSize::0               0                       # Write request sizes (log2) (Count)
system.loc_mem_ctrlrs.writePktSize::1               0                       # Write request sizes (log2) (Count)
system.loc_mem_ctrlrs.writePktSize::2               0                       # Write request sizes (log2) (Count)
system.loc_mem_ctrlrs.writePktSize::3               0                       # Write request sizes (log2) (Count)
system.loc_mem_ctrlrs.writePktSize::4               0                       # Write request sizes (log2) (Count)
system.loc_mem_ctrlrs.writePktSize::5               0                       # Write request sizes (log2) (Count)
system.loc_mem_ctrlrs.writePktSize::6            5622                       # Write request sizes (log2) (Count)
system.loc_mem_ctrlrs.rdQLenPdf::0                  1                       # What read queue length does an incoming req see (Count)
system.loc_mem_ctrlrs.rdQLenPdf::1                  1                       # What read queue length does an incoming req see (Count)
system.loc_mem_ctrlrs.rdQLenPdf::2                  1                       # What read queue length does an incoming req see (Count)
system.loc_mem_ctrlrs.rdQLenPdf::3                  2                       # What read queue length does an incoming req see (Count)
system.loc_mem_ctrlrs.rdQLenPdf::4                  2                       # What read queue length does an incoming req see (Count)
system.loc_mem_ctrlrs.rdQLenPdf::5                 13                       # What read queue length does an incoming req see (Count)
system.loc_mem_ctrlrs.rdQLenPdf::6                 27                       # What read queue length does an incoming req see (Count)
system.loc_mem_ctrlrs.rdQLenPdf::7                 30                       # What read queue length does an incoming req see (Count)
system.loc_mem_ctrlrs.rdQLenPdf::8                 16                       # What read queue length does an incoming req see (Count)
system.loc_mem_ctrlrs.rdQLenPdf::9                  7                       # What read queue length does an incoming req see (Count)
system.loc_mem_ctrlrs.rdQLenPdf::10                 1                       # What read queue length does an incoming req see (Count)
system.loc_mem_ctrlrs.rdQLenPdf::11                 1                       # What read queue length does an incoming req see (Count)
system.loc_mem_ctrlrs.rdQLenPdf::12                 1                       # What read queue length does an incoming req see (Count)
system.loc_mem_ctrlrs.rdQLenPdf::13                 1                       # What read queue length does an incoming req see (Count)
system.loc_mem_ctrlrs.rdQLenPdf::14                 4                       # What read queue length does an incoming req see (Count)
system.loc_mem_ctrlrs.rdQLenPdf::15                 3                       # What read queue length does an incoming req see (Count)
system.loc_mem_ctrlrs.rdQLenPdf::16                 4                       # What read queue length does an incoming req see (Count)
system.loc_mem_ctrlrs.rdQLenPdf::17                 4                       # What read queue length does an incoming req see (Count)
system.loc_mem_ctrlrs.rdQLenPdf::18                 3                       # What read queue length does an incoming req see (Count)
system.loc_mem_ctrlrs.rdQLenPdf::19                 3                       # What read queue length does an incoming req see (Count)
system.loc_mem_ctrlrs.rdQLenPdf::20                 2                       # What read queue length does an incoming req see (Count)
system.loc_mem_ctrlrs.rdQLenPdf::21                 3                       # What read queue length does an incoming req see (Count)
system.loc_mem_ctrlrs.rdQLenPdf::22                 4                       # What read queue length does an incoming req see (Count)
system.loc_mem_ctrlrs.rdQLenPdf::23                 4                       # What read queue length does an incoming req see (Count)
system.loc_mem_ctrlrs.rdQLenPdf::24                 4                       # What read queue length does an incoming req see (Count)
system.loc_mem_ctrlrs.rdQLenPdf::25                 3                       # What read queue length does an incoming req see (Count)
system.loc_mem_ctrlrs.rdQLenPdf::26                 3                       # What read queue length does an incoming req see (Count)
system.loc_mem_ctrlrs.rdQLenPdf::27                 4                       # What read queue length does an incoming req see (Count)
system.loc_mem_ctrlrs.rdQLenPdf::28                 2                       # What read queue length does an incoming req see (Count)
system.loc_mem_ctrlrs.rdQLenPdf::29                 5                       # What read queue length does an incoming req see (Count)
system.loc_mem_ctrlrs.rdQLenPdf::30                 4                       # What read queue length does an incoming req see (Count)
system.loc_mem_ctrlrs.rdQLenPdf::31              5511                       # What read queue length does an incoming req see (Count)
system.loc_mem_ctrlrs.wrQLenPdf::0                  1                       # What write queue length does an incoming req see (Count)
system.loc_mem_ctrlrs.wrQLenPdf::1                  1                       # What write queue length does an incoming req see (Count)
system.loc_mem_ctrlrs.wrQLenPdf::2                  1                       # What write queue length does an incoming req see (Count)
system.loc_mem_ctrlrs.wrQLenPdf::3                  1                       # What write queue length does an incoming req see (Count)
system.loc_mem_ctrlrs.wrQLenPdf::4                  1                       # What write queue length does an incoming req see (Count)
system.loc_mem_ctrlrs.wrQLenPdf::5                  1                       # What write queue length does an incoming req see (Count)
system.loc_mem_ctrlrs.wrQLenPdf::6                  1                       # What write queue length does an incoming req see (Count)
system.loc_mem_ctrlrs.wrQLenPdf::7                  1                       # What write queue length does an incoming req see (Count)
system.loc_mem_ctrlrs.wrQLenPdf::8                  1                       # What write queue length does an incoming req see (Count)
system.loc_mem_ctrlrs.wrQLenPdf::9                  1                       # What write queue length does an incoming req see (Count)
system.loc_mem_ctrlrs.wrQLenPdf::10                 1                       # What write queue length does an incoming req see (Count)
system.loc_mem_ctrlrs.wrQLenPdf::11                 1                       # What write queue length does an incoming req see (Count)
system.loc_mem_ctrlrs.wrQLenPdf::12                 1                       # What write queue length does an incoming req see (Count)
system.loc_mem_ctrlrs.wrQLenPdf::13                 1                       # What write queue length does an incoming req see (Count)
system.loc_mem_ctrlrs.wrQLenPdf::14                 1                       # What write queue length does an incoming req see (Count)
system.loc_mem_ctrlrs.wrQLenPdf::15                 1                       # What write queue length does an incoming req see (Count)
system.loc_mem_ctrlrs.wrQLenPdf::16                 1                       # What write queue length does an incoming req see (Count)
system.loc_mem_ctrlrs.wrQLenPdf::17                 1                       # What write queue length does an incoming req see (Count)
system.loc_mem_ctrlrs.wrQLenPdf::18                 1                       # What write queue length does an incoming req see (Count)
system.loc_mem_ctrlrs.wrQLenPdf::19                 1                       # What write queue length does an incoming req see (Count)
system.loc_mem_ctrlrs.wrQLenPdf::20                 1                       # What write queue length does an incoming req see (Count)
system.loc_mem_ctrlrs.wrQLenPdf::21                 1                       # What write queue length does an incoming req see (Count)
system.loc_mem_ctrlrs.wrQLenPdf::22                 1                       # What write queue length does an incoming req see (Count)
system.loc_mem_ctrlrs.wrQLenPdf::23                 1                       # What write queue length does an incoming req see (Count)
system.loc_mem_ctrlrs.wrQLenPdf::24                 1                       # What write queue length does an incoming req see (Count)
system.loc_mem_ctrlrs.wrQLenPdf::25                 1                       # What write queue length does an incoming req see (Count)
system.loc_mem_ctrlrs.wrQLenPdf::26                 1                       # What write queue length does an incoming req see (Count)
system.loc_mem_ctrlrs.wrQLenPdf::27                 1                       # What write queue length does an incoming req see (Count)
system.loc_mem_ctrlrs.wrQLenPdf::28                 1                       # What write queue length does an incoming req see (Count)
system.loc_mem_ctrlrs.wrQLenPdf::29                 1                       # What write queue length does an incoming req see (Count)
system.loc_mem_ctrlrs.wrQLenPdf::30                 1                       # What write queue length does an incoming req see (Count)
system.loc_mem_ctrlrs.wrQLenPdf::31                 1                       # What write queue length does an incoming req see (Count)
system.loc_mem_ctrlrs.wrQLenPdf::32                 1                       # What write queue length does an incoming req see (Count)
system.loc_mem_ctrlrs.wrQLenPdf::33                 1                       # What write queue length does an incoming req see (Count)
system.loc_mem_ctrlrs.wrQLenPdf::34                 1                       # What write queue length does an incoming req see (Count)
system.loc_mem_ctrlrs.wrQLenPdf::35                 1                       # What write queue length does an incoming req see (Count)
system.loc_mem_ctrlrs.wrQLenPdf::36                 1                       # What write queue length does an incoming req see (Count)
system.loc_mem_ctrlrs.wrQLenPdf::37                 1                       # What write queue length does an incoming req see (Count)
system.loc_mem_ctrlrs.wrQLenPdf::38                 1                       # What write queue length does an incoming req see (Count)
system.loc_mem_ctrlrs.wrQLenPdf::39                 1                       # What write queue length does an incoming req see (Count)
system.loc_mem_ctrlrs.wrQLenPdf::40                 1                       # What write queue length does an incoming req see (Count)
system.loc_mem_ctrlrs.wrQLenPdf::41                 1                       # What write queue length does an incoming req see (Count)
system.loc_mem_ctrlrs.wrQLenPdf::42                 1                       # What write queue length does an incoming req see (Count)
system.loc_mem_ctrlrs.wrQLenPdf::43                 1                       # What write queue length does an incoming req see (Count)
system.loc_mem_ctrlrs.wrQLenPdf::44                 1                       # What write queue length does an incoming req see (Count)
system.loc_mem_ctrlrs.wrQLenPdf::45                 1                       # What write queue length does an incoming req see (Count)
system.loc_mem_ctrlrs.wrQLenPdf::46                 1                       # What write queue length does an incoming req see (Count)
system.loc_mem_ctrlrs.wrQLenPdf::47                 1                       # What write queue length does an incoming req see (Count)
system.loc_mem_ctrlrs.wrQLenPdf::48                 1                       # What write queue length does an incoming req see (Count)
system.loc_mem_ctrlrs.wrQLenPdf::49                 2                       # What write queue length does an incoming req see (Count)
system.loc_mem_ctrlrs.wrQLenPdf::50                 5                       # What write queue length does an incoming req see (Count)
system.loc_mem_ctrlrs.wrQLenPdf::51                15                       # What write queue length does an incoming req see (Count)
system.loc_mem_ctrlrs.wrQLenPdf::52                29                       # What write queue length does an incoming req see (Count)
system.loc_mem_ctrlrs.wrQLenPdf::53                49                       # What write queue length does an incoming req see (Count)
system.loc_mem_ctrlrs.wrQLenPdf::54               116                       # What write queue length does an incoming req see (Count)
system.loc_mem_ctrlrs.wrQLenPdf::55               209                       # What write queue length does an incoming req see (Count)
system.loc_mem_ctrlrs.wrQLenPdf::56               300                       # What write queue length does an incoming req see (Count)
system.loc_mem_ctrlrs.wrQLenPdf::57               383                       # What write queue length does an incoming req see (Count)
system.loc_mem_ctrlrs.wrQLenPdf::58               460                       # What write queue length does an incoming req see (Count)
system.loc_mem_ctrlrs.wrQLenPdf::59               504                       # What write queue length does an incoming req see (Count)
system.loc_mem_ctrlrs.wrQLenPdf::60               538                       # What write queue length does an incoming req see (Count)
system.loc_mem_ctrlrs.wrQLenPdf::61               548                       # What write queue length does an incoming req see (Count)
system.loc_mem_ctrlrs.wrQLenPdf::62               535                       # What write queue length does an incoming req see (Count)
system.loc_mem_ctrlrs.wrQLenPdf::63              1880                       # What write queue length does an incoming req see (Count)
system.loc_mem_ctrlrs.rdPerTurnAround::samples          348                       # Reads before turning the bus around for writes (Count)
system.loc_mem_ctrlrs.rdPerTurnAround::mean    16.212644                       # Reads before turning the bus around for writes (Count)
system.loc_mem_ctrlrs.rdPerTurnAround::gmean    16.079610                       # Reads before turning the bus around for writes (Count)
system.loc_mem_ctrlrs.rdPerTurnAround::stdev     3.966816                       # Reads before turning the bus around for writes (Count)
system.loc_mem_ctrlrs.rdPerTurnAround::16-19          347     99.71%     99.71% # Reads before turning the bus around for writes (Count)
system.loc_mem_ctrlrs.rdPerTurnAround::88-91            1      0.29%    100.00% # Reads before turning the bus around for writes (Count)
system.loc_mem_ctrlrs.rdPerTurnAround::total          348                       # Reads before turning the bus around for writes (Count)
system.loc_mem_ctrlrs.wrPerTurnAround::samples          347                       # Writes before turning the bus around for reads (Count)
system.loc_mem_ctrlrs.wrPerTurnAround::mean           16                       # Writes before turning the bus around for reads (Count)
system.loc_mem_ctrlrs.wrPerTurnAround::gmean    16.000000                       # Writes before turning the bus around for reads (Count)
system.loc_mem_ctrlrs.wrPerTurnAround::16          347    100.00%    100.00% # Writes before turning the bus around for reads (Count)
system.loc_mem_ctrlrs.wrPerTurnAround::total          347                       # Writes before turning the bus around for reads (Count)
system.loc_mem_ctrlrs.bytesReadWrQ                  0                       # Total number of bytes read from write queue (Byte)
system.loc_mem_ctrlrs.bytesReadSys             363136                       # Total read bytes from the system interface side (Byte)
system.loc_mem_ctrlrs.bytesWrittenSys          359808                       # Total written bytes from the system interface side (Byte)
system.loc_mem_ctrlrs.avgRdBWSys         3629436398.70868444                       # Average system read bandwidth in Byte/s ((Byte/Second))
system.loc_mem_ctrlrs.avgWrBWSys         3596174027.76528454                       # Average system write bandwidth in Byte/s ((Byte/Second))
system.loc_mem_ctrlrs.totGap                100039080                       # Total gap between requests (Tick)
system.loc_mem_ctrlrs.avgGap                  8856.15                       # Average gap between requests ((Tick/Count))
system.loc_mem_ctrlrs.requestorReadBytes::writebacks       361088                       # Per-requestor bytes read from memory (Byte)
system.loc_mem_ctrlrs.requestorWriteBytes::writebacks       356352                       # Per-requestor bytes write to memory (Byte)
system.loc_mem_ctrlrs.requestorReadRate::writebacks 3608967247.358899593353                       # Per-requestor bytes read from memory rate ((Byte/Second))
system.loc_mem_ctrlrs.requestorWriteRate::writebacks 3561632334.862523078918                       # Per-requestor bytes write to memory rate ((Byte/Second))
system.loc_mem_ctrlrs.requestorReadAccesses::writebacks         5674                       # Per-requestor read serviced memory accesses (Count)
system.loc_mem_ctrlrs.requestorWriteAccesses::writebacks         5622                       # Per-requestor write serviced memory accesses (Count)
system.loc_mem_ctrlrs.requestorReadTotalLat::writebacks   3147797480                       # Per-requestor read total memory access latency (Tick)
system.loc_mem_ctrlrs.requestorWriteTotalLat::writebacks   6290823820                       # Per-requestor write total memory access latency (Tick)
system.loc_mem_ctrlrs.requestorReadAvgLat::writebacks    554775.73                       # Per-requestor read average memory access latency ((Tick/Count))
system.loc_mem_ctrlrs.requestorWriteAvgLat::writebacks   1118965.46                       # Per-requestor write average memory access latency ((Tick/Count))
system.loc_mem_ctrlrs.dram.bytesRead::writebacks       361088                       # Number of bytes read from this memory (Byte)
system.loc_mem_ctrlrs.dram.bytesRead::total       361088                       # Number of bytes read from this memory (Byte)
system.loc_mem_ctrlrs.dram.bytesWritten::writebacks       359808                       # Number of bytes written to this memory (Byte)
system.loc_mem_ctrlrs.dram.bytesWritten::total       359808                       # Number of bytes written to this memory (Byte)
system.loc_mem_ctrlrs.dram.numReads::writebacks         5642                       # Number of read requests responded to by this memory (Count)
system.loc_mem_ctrlrs.dram.numReads::total         5642                       # Number of read requests responded to by this memory (Count)
system.loc_mem_ctrlrs.dram.numWrites::writebacks         5622                       # Number of write requests responded to by this memory (Count)
system.loc_mem_ctrlrs.dram.numWrites::total         5622                       # Number of write requests responded to by this memory (Count)
system.loc_mem_ctrlrs.dram.bwRead::writebacks   3608967247                       # Total read bandwidth from this memory ((Byte/Second))
system.loc_mem_ctrlrs.dram.bwRead::total   3608967247                       # Total read bandwidth from this memory ((Byte/Second))
system.loc_mem_ctrlrs.dram.bwWrite::writebacks   3596174028                       # Write bandwidth from this memory ((Byte/Second))
system.loc_mem_ctrlrs.dram.bwWrite::total   3596174028                       # Write bandwidth from this memory ((Byte/Second))
system.loc_mem_ctrlrs.dram.bwTotal::writebacks   7205141275                       # Total bandwidth to/from this memory ((Byte/Second))
system.loc_mem_ctrlrs.dram.bwTotal::total   7205141275                       # Total bandwidth to/from this memory ((Byte/Second))
system.loc_mem_ctrlrs.dram.readBursts            5642                       # Number of DRAM read bursts (Count)
system.loc_mem_ctrlrs.dram.writeBursts           5568                       # Number of DRAM write bursts (Count)
system.loc_mem_ctrlrs.dram.perBankRdBursts::0          677                       # Per bank write bursts (Count)
system.loc_mem_ctrlrs.dram.perBankRdBursts::1          702                       # Per bank write bursts (Count)
system.loc_mem_ctrlrs.dram.perBankRdBursts::2          754                       # Per bank write bursts (Count)
system.loc_mem_ctrlrs.dram.perBankRdBursts::3          712                       # Per bank write bursts (Count)
system.loc_mem_ctrlrs.dram.perBankRdBursts::4          690                       # Per bank write bursts (Count)
system.loc_mem_ctrlrs.dram.perBankRdBursts::5          643                       # Per bank write bursts (Count)
system.loc_mem_ctrlrs.dram.perBankRdBursts::6          704                       # Per bank write bursts (Count)
system.loc_mem_ctrlrs.dram.perBankRdBursts::7          760                       # Per bank write bursts (Count)
system.loc_mem_ctrlrs.dram.perBankWrBursts::0          671                       # Per bank write bursts (Count)
system.loc_mem_ctrlrs.dram.perBankWrBursts::1          695                       # Per bank write bursts (Count)
system.loc_mem_ctrlrs.dram.perBankWrBursts::2          734                       # Per bank write bursts (Count)
system.loc_mem_ctrlrs.dram.perBankWrBursts::3          701                       # Per bank write bursts (Count)
system.loc_mem_ctrlrs.dram.perBankWrBursts::4          680                       # Per bank write bursts (Count)
system.loc_mem_ctrlrs.dram.perBankWrBursts::5          642                       # Per bank write bursts (Count)
system.loc_mem_ctrlrs.dram.perBankWrBursts::6          701                       # Per bank write bursts (Count)
system.loc_mem_ctrlrs.dram.perBankWrBursts::7          744                       # Per bank write bursts (Count)
system.loc_mem_ctrlrs.dram.totQLat         3040599480                       # Total ticks spent queuing (Tick)
system.loc_mem_ctrlrs.dram.totBusLat         22568000                       # Total ticks spent in databus transfers (Tick)
system.loc_mem_ctrlrs.dram.totMemAccLat    3147797480                       # Total ticks spent from burst creation until serviced by the DRAM (Tick)
system.loc_mem_ctrlrs.dram.avgQLat          538922.28                       # Average queueing delay per DRAM burst ((Tick/Count))
system.loc_mem_ctrlrs.dram.avgBusLat          4000.00                       # Average bus latency per DRAM burst ((Tick/Count))
system.loc_mem_ctrlrs.dram.avgMemAccLat     557922.28                       # Average memory access latency per DRAM burst ((Tick/Count))
system.loc_mem_ctrlrs.dram.readRowHits              0                       # Number of row buffer hits during reads (Count)
system.loc_mem_ctrlrs.dram.writeRowHits             2                       # Number of row buffer hits during writes (Count)
system.loc_mem_ctrlrs.dram.readRowHitRate         0.00                       # Row buffer hit rate for reads (Ratio)
system.loc_mem_ctrlrs.dram.writeRowHitRate         0.04                       # Row buffer hit rate for writes (Ratio)
system.loc_mem_ctrlrs.dram.bytesPerActivate::samples        11206                       # Bytes accessed per row activation (Byte)
system.loc_mem_ctrlrs.dram.bytesPerActivate::mean    64.011422                       # Bytes accessed per row activation (Byte)
system.loc_mem_ctrlrs.dram.bytesPerActivate::gmean    64.007918                       # Bytes accessed per row activation (Byte)
system.loc_mem_ctrlrs.dram.bytesPerActivate::stdev     0.854969                       # Bytes accessed per row activation (Byte)
system.loc_mem_ctrlrs.dram.bytesPerActivate::64-79        11204     99.98%     99.98% # Bytes accessed per row activation (Byte)
system.loc_mem_ctrlrs.dram.bytesPerActivate::128-143            2      0.02%    100.00% # Bytes accessed per row activation (Byte)
system.loc_mem_ctrlrs.dram.bytesPerActivate::total        11206                       # Bytes accessed per row activation (Byte)
system.loc_mem_ctrlrs.dram.bytesRead           361088                       # Total bytes read (Byte)
system.loc_mem_ctrlrs.dram.bytesWritten        356352                       # Total bytes written (Byte)
system.loc_mem_ctrlrs.dram.avgRdBW        3608.967247                       # Average DRAM read bandwidth in MiBytes/s ((Byte/Second))
system.loc_mem_ctrlrs.dram.avgWrBW        3561.632335                       # Average DRAM write bandwidth in MiBytes/s ((Byte/Second))
system.loc_mem_ctrlrs.dram.peakBW            16000.00                       # Theoretical peak bandwidth in MiByte/s ((Byte/Second))
system.loc_mem_ctrlrs.dram.busUtil              44.82                       # Data bus utilization in percentage (Ratio)
system.loc_mem_ctrlrs.dram.busUtilRead          22.56                       # Data bus utilization in percentage for reads (Ratio)
system.loc_mem_ctrlrs.dram.busUtilWrite         22.26                       # Data bus utilization in percentage for writes (Ratio)
system.loc_mem_ctrlrs.dram.pageHitRate           0.02                       # Row buffer hit rate, read and write combined (Ratio)
system.loc_mem_ctrlrs.dram.power_state.pwrStateResidencyTicks::UNDEFINED    100053000                       # Cumulative time (in ticks) in various power states (Tick)
system.loc_mem_ctrlrs.dram.rank0.actEnergy            0                       # Energy for activate commands per rank (pJ) (Joule)
system.loc_mem_ctrlrs.dram.rank0.preEnergy            0                       # Energy for precharge commands per rank (pJ) (Joule)
system.loc_mem_ctrlrs.dram.rank0.readEnergy            0                       # Energy for read commands per rank (pJ) (Joule)
system.loc_mem_ctrlrs.dram.rank0.writeEnergy            0                       # Energy for write commands per rank (pJ) (Joule)
system.loc_mem_ctrlrs.dram.rank0.refreshEnergy            0                       # Energy for refresh commands per rank (pJ) (Joule)
system.loc_mem_ctrlrs.dram.rank0.actBackEnergy            0                       # Energy for active background per rank (pJ) (Joule)
system.loc_mem_ctrlrs.dram.rank0.preBackEnergy            0                       # Energy for precharge background per rank (pJ) (Joule)
system.loc_mem_ctrlrs.dram.rank0.actPowerDownEnergy            0                       # Energy for active power-down per rank (pJ) (Joule)
system.loc_mem_ctrlrs.dram.rank0.prePowerDownEnergy            0                       # Energy for precharge power-down per rank (pJ) (Joule)
system.loc_mem_ctrlrs.dram.rank0.selfRefreshEnergy            0                       # Energy for self refresh per rank (pJ) (Joule)
system.loc_mem_ctrlrs.dram.rank0.totalEnergy            0                       # Total energy per rank (pJ) (Joule)
system.loc_mem_ctrlrs.dram.rank0.averagePower            0                       # Core power per rank (mW) (Watt)
system.loc_mem_ctrlrs.dram.rank0.totalIdleTime            0                       # Total Idle time Per DRAM Rank (Tick)
system.loc_mem_ctrlrs.dram.rank0.pwrStateTime::IDLE        11920                       # Time in different power states (Tick)
system.loc_mem_ctrlrs.dram.rank0.pwrStateTime::REF      4000000                       # Time in different power states (Tick)
system.loc_mem_ctrlrs.dram.rank0.pwrStateTime::SREF            0                       # Time in different power states (Tick)
system.loc_mem_ctrlrs.dram.rank0.pwrStateTime::PRE_PDN            0                       # Time in different power states (Tick)
system.loc_mem_ctrlrs.dram.rank0.pwrStateTime::ACT     96041080                       # Time in different power states (Tick)
system.loc_mem_ctrlrs.dram.rank0.pwrStateTime::ACT_PDN            0                       # Time in different power states (Tick)
system.loc_mem_ctrlrs.power_state.pwrStateResidencyTicks::UNDEFINED    100053000                       # Cumulative time (in ticks) in various power states (Tick)
system.mem_ctrl.bytesRead::generators          359808                       # Number of bytes read from this memory (Byte)
system.mem_ctrl.bytesRead::total               359808                       # Number of bytes read from this memory (Byte)
system.mem_ctrl.numReads::generators             5622                       # Number of read requests responded to by this memory (Count)
system.mem_ctrl.numReads::total                  5622                       # Number of read requests responded to by this memory (Count)
system.mem_ctrl.bwRead::generators         3596174028                       # Total read bandwidth from this memory ((Byte/Second))
system.mem_ctrl.bwRead::total              3596174028                       # Total read bandwidth from this memory ((Byte/Second))
system.mem_ctrl.bwTotal::generators        3596174028                       # Total bandwidth to/from this memory ((Byte/Second))
system.mem_ctrl.bwTotal::total             3596174028                       # Total bandwidth to/from this memory ((Byte/Second))
system.mem_ctrl.readReqs                         5877                       # Number of read requests accepted (Count)
system.mem_ctrl.writeReqs                           0                       # Number of write requests accepted (Count)
system.mem_ctrl.servicedByWrQ                       0                       # Number of controller read bursts serviced by the write queue (Count)
system.mem_ctrl.mergedWrBursts                      0                       # Number of controller write bursts merged with an existing one (Count)
system.mem_ctrl.numRdRetry                       2974                       # Number of times read queue was full causing retry (Count)
system.mem_ctrl.numWrRetry                          0                       # Number of times write queue was full causing retry (Count)
system.mem_ctrl.readPktSize::0                      0                       # Read request sizes (log2) (Count)
system.mem_ctrl.readPktSize::1                      0                       # Read request sizes (log2) (Count)
system.mem_ctrl.readPktSize::2                      0                       # Read request sizes (log2) (Count)
system.mem_ctrl.readPktSize::3                      0                       # Read request sizes (log2) (Count)
system.mem_ctrl.readPktSize::4                      0                       # Read request sizes (log2) (Count)
system.mem_ctrl.readPktSize::5                      0                       # Read request sizes (log2) (Count)
system.mem_ctrl.readPktSize::6                   5877                       # Read request sizes (log2) (Count)
system.mem_ctrl.writePktSize::0                     0                       # Write request sizes (log2) (Count)
system.mem_ctrl.writePktSize::1                     0                       # Write request sizes (log2) (Count)
system.mem_ctrl.writePktSize::2                     0                       # Write request sizes (log2) (Count)
system.mem_ctrl.writePktSize::3                     0                       # Write request sizes (log2) (Count)
system.mem_ctrl.writePktSize::4                     0                       # Write request sizes (log2) (Count)
system.mem_ctrl.writePktSize::5                     0                       # Write request sizes (log2) (Count)
system.mem_ctrl.writePktSize::6                     0                       # Write request sizes (log2) (Count)
system.mem_ctrl.bytesReadWrQ                        0                       # Total number of bytes read from write queue (Byte)
system.mem_ctrl.bytesReadSys                   376128                       # Total read bytes from the system interface side (Byte)
system.mem_ctrl.bytesWrittenSys                     0                       # Total written bytes from the system interface side (Byte)
system.mem_ctrl.avgRdBWSys               3759287577.58388042                       # Average system read bandwidth in Byte/s ((Byte/Second))
system.mem_ctrl.avgWrBWSys                 0.00000000                       # Average system write bandwidth in Byte/s ((Byte/Second))
system.mem_ctrl.totGap                   18446604327837472768                       # Total gap between requests (Tick)
system.mem_ctrl.avgGap                   3138779024644797.00                       # Average gap between requests ((Tick/Count))
system.mem_ctrl.avgORBLen                    243.4981                       # Average ORB length ((Count/Tick))
system.mem_ctrl.avgLocRdQLenStrt               193.49                       # Average local read queue length ((Count/Tick))
system.mem_ctrl.avgLocWrQLenStrt                 0.68                       # Average local write queue length ((Count/Tick))
system.mem_ctrl.avgFarRdQLenStrt                 0.00                       # Average far read queue length ((Count/Tick))
system.mem_ctrl.avgFarWrQLenStrt                 0.00                       # Average far write queue length ((Count/Tick))
system.mem_ctrl.avgLocRdQLenEnq                194.49                       # Average local read queue length when enqueuing ((Count/Tick))
system.mem_ctrl.avgLocWrQLenEnq                  2.15                       # Average local write queue length when enqueuing ((Count/Tick))
system.mem_ctrl.avgFarRdQLenEnq                  1.00                       # Average far read queue length when enqueuing ((Count/Tick))
system.mem_ctrl.avgFarWrQLenEnq                  0.00                       # Average far write queue length when enqueuing ((Count/Tick))
system.mem_ctrl.numWrBacks                          0                       # Total number of write backs from DRAM cache to main memory (Unspecified)
system.mem_ctrl.totNumConf                          0                       # Total number of packets conflicted on DRAM cache (Unspecified)
system.mem_ctrl.totNumORBFull                    2974                       # Total number of packets ORB full (Unspecified)
system.mem_ctrl.totNumCRBFull                       0                       # Total number of packets conflicted yet couldn't enter confBuffer (Unspecified)
system.mem_ctrl.maxNumConf                          0                       # Maximum number of packets conflicted on DRAM cache (Unspecified)
system.mem_ctrl.sentLocRdPort                    5674                       # stat (Unspecified)
system.mem_ctrl.sentLocWrPort                    5622                       # stat (Unspecified)
system.mem_ctrl.failedLocRdPort                  6883                       # stat (Unspecified)
system.mem_ctrl.failedLocWrPort                  4075                       # stat (Unspecified)
system.mem_ctrl.recvdRdPort                         0                       # stat (Unspecified)
system.mem_ctrl.sentFarRdPort                    5642                       # stat (Unspecified)
system.mem_ctrl.sentFarWrPort                       0                       # stat (Unspecified)
system.mem_ctrl.failedFarRdPort                     0                       # stat (Unspecified)
system.mem_ctrl.failedFarWrPort                     0                       # stat (Unspecified)
system.mem_ctrl.totPktsServiceTime           23748437                       # stat (Unspecified)
system.mem_ctrl.totPktsORBTime               23748437                       # stat (Unspecified)
system.mem_ctrl.totTimeFarRdtoSend                  0                       # stat (Unspecified)
system.mem_ctrl.totTimeFarRdtoRecv            1539789                       # stat (Unspecified)
system.mem_ctrl.totTimeFarWrtoSend                  0                       # stat (Unspecified)
system.mem_ctrl.totTimeInLocRead             22047645                       # stat (Unspecified)
system.mem_ctrl.totTimeInLocWrite              159409                       # stat (Unspecified)
system.mem_ctrl.totTimeInFarRead              1539789                       # stat (Unspecified)
system.mem_ctrl.numTotHits                          0                       # stat (Unspecified)
system.mem_ctrl.numTotMisses                     5877                       # stat (Unspecified)
system.mem_ctrl.numColdMisses                    5876                       # stat (Unspecified)
system.mem_ctrl.numHotMisses                        1                       # stat (Unspecified)
system.mem_ctrl.numRdMissClean                   5877                       # stat (Unspecified)
system.mem_ctrl.numRdMissDirty                      0                       # stat (Unspecified)
system.mem_ctrl.numRdHit                            0                       # stat (Unspecified)
system.mem_ctrl.numWrMissClean                      0                       # stat (Unspecified)
system.mem_ctrl.numWrMissDirty                      0                       # stat (Unspecified)
system.mem_ctrl.numWrHit                            0                       # stat (Unspecified)
system.mem_ctrl.numRdHitDirty                       0                       # stat (Unspecified)
system.mem_ctrl.numRdHitClean                       0                       # stat (Unspecified)
system.mem_ctrl.numWrHitDirty                       0                       # stat (Unspecified)
system.mem_ctrl.numWrHitClean                       0                       # stat (Unspecified)
system.mem_ctrl.power_state.pwrStateResidencyTicks::UNDEFINED    100053000                       # Cumulative time (in ticks) in various power states (Tick)
system.membusPolManFarMem.transDist::ReadReq         5642                       # Transaction distribution (Count)
system.membusPolManFarMem.transDist::ReadResp         5622                       # Transaction distribution (Count)
system.membusPolManFarMem.pktCount_system.mem_ctrl.far_req_port::system.far_mem_ctrl.port        11264                       # Packet count per connected requestor and responder (Count)
system.membusPolManFarMem.pktSize_system.mem_ctrl.far_req_port::system.far_mem_ctrl.port       359808                       # Cumulative packet size per connected requestor and responder (Byte)
system.membusPolManFarMem.snoops                    0                       # Total snoops (Count)
system.membusPolManFarMem.snoopTraffic              0                       # Total snoop traffic (Byte)
system.membusPolManFarMem.snoopFanout::samples         5642                       # Request fanout histogram (Count)
system.membusPolManFarMem.snoopFanout::mean            0                       # Request fanout histogram (Count)
system.membusPolManFarMem.snoopFanout::stdev            0                       # Request fanout histogram (Count)
system.membusPolManFarMem.snoopFanout::underflows            0      0.00%      0.00% # Request fanout histogram (Count)
system.membusPolManFarMem.snoopFanout::0         5642    100.00%    100.00% # Request fanout histogram (Count)
system.membusPolManFarMem.snoopFanout::overflows            0      0.00%    100.00% # Request fanout histogram (Count)
system.membusPolManFarMem.snoopFanout::min_value            0                       # Request fanout histogram (Count)
system.membusPolManFarMem.snoopFanout::max_value            0                       # Request fanout histogram (Count)
system.membusPolManFarMem.snoopFanout::total         5642                       # Request fanout histogram (Count)
system.membusPolManFarMem.power_state.pwrStateResidencyTicks::UNDEFINED    100053000                       # Cumulative time (in ticks) in various power states (Tick)
system.membusPolManFarMem.reqLayer0.occupancy      1439620                       # Layer occupancy (ticks) (Tick)
system.membusPolManFarMem.reqLayer0.utilization          0.0                       # Layer utilization (Ratio)
system.membusPolManFarMem.respLayer0.occupancy      2827436                       # Layer occupancy (ticks) (Tick)
system.membusPolManFarMem.respLayer0.utilization          0.0                       # Layer utilization (Ratio)
system.membusPolManFarMem.snoop_filter.totRequests            0                       # Total number of requests made to the snoop filter. (Count)
system.membusPolManFarMem.snoop_filter.hitSingleRequests            0                       # Number of requests hitting in the snoop filter with a single holder of the requested data. (Count)
system.membusPolManFarMem.snoop_filter.hitMultiRequests            0                       # Number of requests hitting in the snoop filter with multiple (>1) holders of the requested data. (Count)
system.membusPolManFarMem.snoop_filter.totSnoops            0                       # Total number of snoops made to the snoop filter. (Count)
system.membusPolManFarMem.snoop_filter.hitSingleSnoops            0                       # Number of snoops hitting in the snoop filter with a single holder of the requested data. (Count)
system.membusPolManFarMem.snoop_filter.hitMultiSnoops            0                       # Number of snoops hitting in the snoop filter with multiple (>1) holders of the requested data. (Count)
system.workload.inst.arm                            0                       # number of arm instructions executed (Count)
system.workload.inst.quiesce                        0                       # number of quiesce instructions executed (Count)

---------- End Simulation Statistics   ----------
