
---------- Begin Simulation Statistics ----------
simSeconds                                   0.000100                       # Number of seconds simulated (Second)
simTicks                                    100056500                       # Number of ticks simulated (Tick)
finalTick                                   100056500                       # Number of ticks from beginning of simulation (restored from checkpoints and never reset) (Tick)
simFreq                                  1000000000000                       # The number of ticks per simulated second ((Tick/Second))
hostSeconds                                      0.30                       # Real time elapsed on the host (Second)
hostTickRate                                334217706                       # The number of ticks simulated per host second (ticks/s) ((Tick/Second))
hostMemory                                    8499616                       # Number of bytes of host memory used (Byte)
system.clk_domain.clock                           200                       # Clock period in ticks (Tick)
system.clk_domain.voltage_domain.voltage            1                       # Voltage in Volts (Volt)
system.far_mem_ctrl0.avgPriority_writebacks::samples      5781.00                       # Average QoS priority value for accepted requests (Count)
system.far_mem_ctrl0.priorityMinLatency  0.000000317492                       # per QoS priority minimum request to response latency (Second)
system.far_mem_ctrl0.priorityMaxLatency  0.000002424492                       # per QoS priority maximum request to response latency (Second)
system.far_mem_ctrl0.numReadWriteTurnArounds            0                       # Number of turnarounds from READ to WRITE (Count)
system.far_mem_ctrl0.numWriteReadTurnArounds            0                       # Number of turnarounds from WRITE to READ (Count)
system.far_mem_ctrl0.numStayReadState           17268                       # Number of times bus staying in READ state (Count)
system.far_mem_ctrl0.numStayWriteState              0                       # Number of times bus staying in WRITE state (Count)
system.far_mem_ctrl0.readReqs                    5781                       # Number of read requests accepted (Count)
system.far_mem_ctrl0.writeReqs                      0                       # Number of write requests accepted (Count)
system.far_mem_ctrl0.readBursts                  5781                       # Number of controller read bursts, including those serviced by the write queue (Count)
system.far_mem_ctrl0.writeBursts                    0                       # Number of controller write bursts, including those merged in the write queue (Count)
system.far_mem_ctrl0.servicedByWrQ                  0                       # Number of controller read bursts serviced by the write queue (Count)
system.far_mem_ctrl0.mergedWrBursts                 0                       # Number of controller write bursts merged with an existing one (Count)
system.far_mem_ctrl0.neitherReadNorWriteReqs            0                       # Number of requests that are neither read nor write (Count)
system.far_mem_ctrl0.avgRdQLen                  18.09                       # Average read queue length when enqueuing ((Count/Tick))
system.far_mem_ctrl0.avgWrQLen                   0.00                       # Average write queue length when enqueuing ((Count/Tick))
system.far_mem_ctrl0.numRdRetry                     0                       # Number of times read queue was full causing retry (Count)
system.far_mem_ctrl0.numWrRetry                     0                       # Number of times write queue was full causing retry (Count)
system.far_mem_ctrl0.readPktSize::0                 0                       # Read request sizes (log2) (Count)
system.far_mem_ctrl0.readPktSize::1                 0                       # Read request sizes (log2) (Count)
system.far_mem_ctrl0.readPktSize::2                 0                       # Read request sizes (log2) (Count)
system.far_mem_ctrl0.readPktSize::3                 0                       # Read request sizes (log2) (Count)
system.far_mem_ctrl0.readPktSize::4                 0                       # Read request sizes (log2) (Count)
system.far_mem_ctrl0.readPktSize::5                 0                       # Read request sizes (log2) (Count)
system.far_mem_ctrl0.readPktSize::6              5781                       # Read request sizes (log2) (Count)
system.far_mem_ctrl0.writePktSize::0                0                       # Write request sizes (log2) (Count)
system.far_mem_ctrl0.writePktSize::1                0                       # Write request sizes (log2) (Count)
system.far_mem_ctrl0.writePktSize::2                0                       # Write request sizes (log2) (Count)
system.far_mem_ctrl0.writePktSize::3                0                       # Write request sizes (log2) (Count)
system.far_mem_ctrl0.writePktSize::4                0                       # Write request sizes (log2) (Count)
system.far_mem_ctrl0.writePktSize::5                0                       # Write request sizes (log2) (Count)
system.far_mem_ctrl0.writePktSize::6                0                       # Write request sizes (log2) (Count)
system.far_mem_ctrl0.rdQLenPdf::0                   3                       # What read queue length does an incoming req see (Count)
system.far_mem_ctrl0.rdQLenPdf::1                   6                       # What read queue length does an incoming req see (Count)
system.far_mem_ctrl0.rdQLenPdf::2                  14                       # What read queue length does an incoming req see (Count)
system.far_mem_ctrl0.rdQLenPdf::3                  23                       # What read queue length does an incoming req see (Count)
system.far_mem_ctrl0.rdQLenPdf::4                  45                       # What read queue length does an incoming req see (Count)
system.far_mem_ctrl0.rdQLenPdf::5                  53                       # What read queue length does an incoming req see (Count)
system.far_mem_ctrl0.rdQLenPdf::6                  88                       # What read queue length does an incoming req see (Count)
system.far_mem_ctrl0.rdQLenPdf::7                 147                       # What read queue length does an incoming req see (Count)
system.far_mem_ctrl0.rdQLenPdf::8                 225                       # What read queue length does an incoming req see (Count)
system.far_mem_ctrl0.rdQLenPdf::9                 301                       # What read queue length does an incoming req see (Count)
system.far_mem_ctrl0.rdQLenPdf::10                384                       # What read queue length does an incoming req see (Count)
system.far_mem_ctrl0.rdQLenPdf::11                393                       # What read queue length does an incoming req see (Count)
system.far_mem_ctrl0.rdQLenPdf::12                445                       # What read queue length does an incoming req see (Count)
system.far_mem_ctrl0.rdQLenPdf::13                450                       # What read queue length does an incoming req see (Count)
system.far_mem_ctrl0.rdQLenPdf::14                491                       # What read queue length does an incoming req see (Count)
system.far_mem_ctrl0.rdQLenPdf::15                525                       # What read queue length does an incoming req see (Count)
system.far_mem_ctrl0.rdQLenPdf::16                560                       # What read queue length does an incoming req see (Count)
system.far_mem_ctrl0.rdQLenPdf::17                479                       # What read queue length does an incoming req see (Count)
system.far_mem_ctrl0.rdQLenPdf::18                391                       # What read queue length does an incoming req see (Count)
system.far_mem_ctrl0.rdQLenPdf::19                264                       # What read queue length does an incoming req see (Count)
system.far_mem_ctrl0.rdQLenPdf::20                177                       # What read queue length does an incoming req see (Count)
system.far_mem_ctrl0.rdQLenPdf::21                 94                       # What read queue length does an incoming req see (Count)
system.far_mem_ctrl0.rdQLenPdf::22                 46                       # What read queue length does an incoming req see (Count)
system.far_mem_ctrl0.rdQLenPdf::23                 23                       # What read queue length does an incoming req see (Count)
system.far_mem_ctrl0.rdQLenPdf::24                 14                       # What read queue length does an incoming req see (Count)
system.far_mem_ctrl0.rdQLenPdf::25                 11                       # What read queue length does an incoming req see (Count)
system.far_mem_ctrl0.rdQLenPdf::26                  9                       # What read queue length does an incoming req see (Count)
system.far_mem_ctrl0.rdQLenPdf::27                  5                       # What read queue length does an incoming req see (Count)
system.far_mem_ctrl0.rdQLenPdf::28                  3                       # What read queue length does an incoming req see (Count)
system.far_mem_ctrl0.rdQLenPdf::29                  7                       # What read queue length does an incoming req see (Count)
system.far_mem_ctrl0.rdQLenPdf::30                  8                       # What read queue length does an incoming req see (Count)
system.far_mem_ctrl0.rdQLenPdf::31                  4                       # What read queue length does an incoming req see (Count)
system.far_mem_ctrl0.rdQLenPdf::32                  2                       # What read queue length does an incoming req see (Count)
system.far_mem_ctrl0.rdQLenPdf::33                  6                       # What read queue length does an incoming req see (Count)
system.far_mem_ctrl0.rdQLenPdf::34                  5                       # What read queue length does an incoming req see (Count)
system.far_mem_ctrl0.rdQLenPdf::35                  3                       # What read queue length does an incoming req see (Count)
system.far_mem_ctrl0.rdQLenPdf::36                  7                       # What read queue length does an incoming req see (Count)
system.far_mem_ctrl0.rdQLenPdf::37                  9                       # What read queue length does an incoming req see (Count)
system.far_mem_ctrl0.rdQLenPdf::38                  4                       # What read queue length does an incoming req see (Count)
system.far_mem_ctrl0.rdQLenPdf::39                  4                       # What read queue length does an incoming req see (Count)
system.far_mem_ctrl0.rdQLenPdf::40                  5                       # What read queue length does an incoming req see (Count)
system.far_mem_ctrl0.rdQLenPdf::41                  5                       # What read queue length does an incoming req see (Count)
system.far_mem_ctrl0.rdQLenPdf::42                 11                       # What read queue length does an incoming req see (Count)
system.far_mem_ctrl0.rdQLenPdf::43                  7                       # What read queue length does an incoming req see (Count)
system.far_mem_ctrl0.rdQLenPdf::44                  1                       # What read queue length does an incoming req see (Count)
system.far_mem_ctrl0.rdQLenPdf::45                  2                       # What read queue length does an incoming req see (Count)
system.far_mem_ctrl0.rdQLenPdf::46                  3                       # What read queue length does an incoming req see (Count)
system.far_mem_ctrl0.rdQLenPdf::47                  6                       # What read queue length does an incoming req see (Count)
system.far_mem_ctrl0.rdQLenPdf::48                  6                       # What read queue length does an incoming req see (Count)
system.far_mem_ctrl0.rdQLenPdf::49                  3                       # What read queue length does an incoming req see (Count)
system.far_mem_ctrl0.rdQLenPdf::50                  4                       # What read queue length does an incoming req see (Count)
system.far_mem_ctrl0.rdQLenPdf::51                  0                       # What read queue length does an incoming req see (Count)
system.far_mem_ctrl0.rdQLenPdf::52                  0                       # What read queue length does an incoming req see (Count)
system.far_mem_ctrl0.rdQLenPdf::53                  0                       # What read queue length does an incoming req see (Count)
system.far_mem_ctrl0.rdQLenPdf::54                  0                       # What read queue length does an incoming req see (Count)
system.far_mem_ctrl0.rdQLenPdf::55                  0                       # What read queue length does an incoming req see (Count)
system.far_mem_ctrl0.rdQLenPdf::56                  0                       # What read queue length does an incoming req see (Count)
system.far_mem_ctrl0.rdQLenPdf::57                  0                       # What read queue length does an incoming req see (Count)
system.far_mem_ctrl0.rdQLenPdf::58                  0                       # What read queue length does an incoming req see (Count)
system.far_mem_ctrl0.rdQLenPdf::59                  0                       # What read queue length does an incoming req see (Count)
system.far_mem_ctrl0.rdQLenPdf::60                  0                       # What read queue length does an incoming req see (Count)
system.far_mem_ctrl0.rdQLenPdf::61                  0                       # What read queue length does an incoming req see (Count)
system.far_mem_ctrl0.rdQLenPdf::62                  0                       # What read queue length does an incoming req see (Count)
system.far_mem_ctrl0.rdQLenPdf::63                  0                       # What read queue length does an incoming req see (Count)
system.far_mem_ctrl0.rdQLenPdf::64                  0                       # What read queue length does an incoming req see (Count)
system.far_mem_ctrl0.rdQLenPdf::65                  0                       # What read queue length does an incoming req see (Count)
system.far_mem_ctrl0.rdQLenPdf::66                  0                       # What read queue length does an incoming req see (Count)
system.far_mem_ctrl0.rdQLenPdf::67                  0                       # What read queue length does an incoming req see (Count)
system.far_mem_ctrl0.rdQLenPdf::68                  0                       # What read queue length does an incoming req see (Count)
system.far_mem_ctrl0.rdQLenPdf::69                  0                       # What read queue length does an incoming req see (Count)
system.far_mem_ctrl0.rdQLenPdf::70                  0                       # What read queue length does an incoming req see (Count)
system.far_mem_ctrl0.rdQLenPdf::71                  0                       # What read queue length does an incoming req see (Count)
system.far_mem_ctrl0.rdQLenPdf::72                  0                       # What read queue length does an incoming req see (Count)
system.far_mem_ctrl0.rdQLenPdf::73                  0                       # What read queue length does an incoming req see (Count)
system.far_mem_ctrl0.rdQLenPdf::74                  0                       # What read queue length does an incoming req see (Count)
system.far_mem_ctrl0.rdQLenPdf::75                  0                       # What read queue length does an incoming req see (Count)
system.far_mem_ctrl0.rdQLenPdf::76                  0                       # What read queue length does an incoming req see (Count)
system.far_mem_ctrl0.rdQLenPdf::77                  0                       # What read queue length does an incoming req see (Count)
system.far_mem_ctrl0.rdQLenPdf::78                  0                       # What read queue length does an incoming req see (Count)
system.far_mem_ctrl0.rdQLenPdf::79                  0                       # What read queue length does an incoming req see (Count)
system.far_mem_ctrl0.rdQLenPdf::80                  0                       # What read queue length does an incoming req see (Count)
system.far_mem_ctrl0.rdQLenPdf::81                  0                       # What read queue length does an incoming req see (Count)
system.far_mem_ctrl0.rdQLenPdf::82                  0                       # What read queue length does an incoming req see (Count)
system.far_mem_ctrl0.rdQLenPdf::83                  0                       # What read queue length does an incoming req see (Count)
system.far_mem_ctrl0.rdQLenPdf::84                  0                       # What read queue length does an incoming req see (Count)
system.far_mem_ctrl0.rdQLenPdf::85                  0                       # What read queue length does an incoming req see (Count)
system.far_mem_ctrl0.rdQLenPdf::86                  0                       # What read queue length does an incoming req see (Count)
system.far_mem_ctrl0.rdQLenPdf::87                  0                       # What read queue length does an incoming req see (Count)
system.far_mem_ctrl0.rdQLenPdf::88                  0                       # What read queue length does an incoming req see (Count)
system.far_mem_ctrl0.rdQLenPdf::89                  0                       # What read queue length does an incoming req see (Count)
system.far_mem_ctrl0.rdQLenPdf::90                  0                       # What read queue length does an incoming req see (Count)
system.far_mem_ctrl0.rdQLenPdf::91                  0                       # What read queue length does an incoming req see (Count)
system.far_mem_ctrl0.rdQLenPdf::92                  0                       # What read queue length does an incoming req see (Count)
system.far_mem_ctrl0.rdQLenPdf::93                  0                       # What read queue length does an incoming req see (Count)
system.far_mem_ctrl0.rdQLenPdf::94                  0                       # What read queue length does an incoming req see (Count)
system.far_mem_ctrl0.rdQLenPdf::95                  0                       # What read queue length does an incoming req see (Count)
system.far_mem_ctrl0.rdQLenPdf::96                  0                       # What read queue length does an incoming req see (Count)
system.far_mem_ctrl0.rdQLenPdf::97                  0                       # What read queue length does an incoming req see (Count)
system.far_mem_ctrl0.rdQLenPdf::98                  0                       # What read queue length does an incoming req see (Count)
system.far_mem_ctrl0.rdQLenPdf::99                  0                       # What read queue length does an incoming req see (Count)
system.far_mem_ctrl0.rdQLenPdf::100                 0                       # What read queue length does an incoming req see (Count)
system.far_mem_ctrl0.rdQLenPdf::101                 0                       # What read queue length does an incoming req see (Count)
system.far_mem_ctrl0.rdQLenPdf::102                 0                       # What read queue length does an incoming req see (Count)
system.far_mem_ctrl0.rdQLenPdf::103                 0                       # What read queue length does an incoming req see (Count)
system.far_mem_ctrl0.rdQLenPdf::104                 0                       # What read queue length does an incoming req see (Count)
system.far_mem_ctrl0.rdQLenPdf::105                 0                       # What read queue length does an incoming req see (Count)
system.far_mem_ctrl0.rdQLenPdf::106                 0                       # What read queue length does an incoming req see (Count)
system.far_mem_ctrl0.rdQLenPdf::107                 0                       # What read queue length does an incoming req see (Count)
system.far_mem_ctrl0.rdQLenPdf::108                 0                       # What read queue length does an incoming req see (Count)
system.far_mem_ctrl0.rdQLenPdf::109                 0                       # What read queue length does an incoming req see (Count)
system.far_mem_ctrl0.rdQLenPdf::110                 0                       # What read queue length does an incoming req see (Count)
system.far_mem_ctrl0.rdQLenPdf::111                 0                       # What read queue length does an incoming req see (Count)
system.far_mem_ctrl0.rdQLenPdf::112                 0                       # What read queue length does an incoming req see (Count)
system.far_mem_ctrl0.rdQLenPdf::113                 0                       # What read queue length does an incoming req see (Count)
system.far_mem_ctrl0.rdQLenPdf::114                 0                       # What read queue length does an incoming req see (Count)
system.far_mem_ctrl0.rdQLenPdf::115                 0                       # What read queue length does an incoming req see (Count)
system.far_mem_ctrl0.rdQLenPdf::116                 0                       # What read queue length does an incoming req see (Count)
system.far_mem_ctrl0.rdQLenPdf::117                 0                       # What read queue length does an incoming req see (Count)
system.far_mem_ctrl0.rdQLenPdf::118                 0                       # What read queue length does an incoming req see (Count)
system.far_mem_ctrl0.rdQLenPdf::119                 0                       # What read queue length does an incoming req see (Count)
system.far_mem_ctrl0.rdQLenPdf::120                 0                       # What read queue length does an incoming req see (Count)
system.far_mem_ctrl0.rdQLenPdf::121                 0                       # What read queue length does an incoming req see (Count)
system.far_mem_ctrl0.rdQLenPdf::122                 0                       # What read queue length does an incoming req see (Count)
system.far_mem_ctrl0.rdQLenPdf::123                 0                       # What read queue length does an incoming req see (Count)
system.far_mem_ctrl0.rdQLenPdf::124                 0                       # What read queue length does an incoming req see (Count)
system.far_mem_ctrl0.rdQLenPdf::125                 0                       # What read queue length does an incoming req see (Count)
system.far_mem_ctrl0.rdQLenPdf::126                 0                       # What read queue length does an incoming req see (Count)
system.far_mem_ctrl0.rdQLenPdf::127                 0                       # What read queue length does an incoming req see (Count)
system.far_mem_ctrl0.wrQLenPdf::0                   0                       # What write queue length does an incoming req see (Count)
system.far_mem_ctrl0.wrQLenPdf::1                   0                       # What write queue length does an incoming req see (Count)
system.far_mem_ctrl0.wrQLenPdf::2                   0                       # What write queue length does an incoming req see (Count)
system.far_mem_ctrl0.wrQLenPdf::3                   0                       # What write queue length does an incoming req see (Count)
system.far_mem_ctrl0.wrQLenPdf::4                   0                       # What write queue length does an incoming req see (Count)
system.far_mem_ctrl0.wrQLenPdf::5                   0                       # What write queue length does an incoming req see (Count)
system.far_mem_ctrl0.wrQLenPdf::6                   0                       # What write queue length does an incoming req see (Count)
system.far_mem_ctrl0.wrQLenPdf::7                   0                       # What write queue length does an incoming req see (Count)
system.far_mem_ctrl0.wrQLenPdf::8                   0                       # What write queue length does an incoming req see (Count)
system.far_mem_ctrl0.wrQLenPdf::9                   0                       # What write queue length does an incoming req see (Count)
system.far_mem_ctrl0.wrQLenPdf::10                  0                       # What write queue length does an incoming req see (Count)
system.far_mem_ctrl0.wrQLenPdf::11                  0                       # What write queue length does an incoming req see (Count)
system.far_mem_ctrl0.wrQLenPdf::12                  0                       # What write queue length does an incoming req see (Count)
system.far_mem_ctrl0.wrQLenPdf::13                  0                       # What write queue length does an incoming req see (Count)
system.far_mem_ctrl0.wrQLenPdf::14                  0                       # What write queue length does an incoming req see (Count)
system.far_mem_ctrl0.wrQLenPdf::15                  0                       # What write queue length does an incoming req see (Count)
system.far_mem_ctrl0.wrQLenPdf::16                  0                       # What write queue length does an incoming req see (Count)
system.far_mem_ctrl0.wrQLenPdf::17                  0                       # What write queue length does an incoming req see (Count)
system.far_mem_ctrl0.wrQLenPdf::18                  0                       # What write queue length does an incoming req see (Count)
system.far_mem_ctrl0.wrQLenPdf::19                  0                       # What write queue length does an incoming req see (Count)
system.far_mem_ctrl0.wrQLenPdf::20                  0                       # What write queue length does an incoming req see (Count)
system.far_mem_ctrl0.wrQLenPdf::21                  0                       # What write queue length does an incoming req see (Count)
system.far_mem_ctrl0.wrQLenPdf::22                  0                       # What write queue length does an incoming req see (Count)
system.far_mem_ctrl0.wrQLenPdf::23                  0                       # What write queue length does an incoming req see (Count)
system.far_mem_ctrl0.wrQLenPdf::24                  0                       # What write queue length does an incoming req see (Count)
system.far_mem_ctrl0.wrQLenPdf::25                  0                       # What write queue length does an incoming req see (Count)
system.far_mem_ctrl0.wrQLenPdf::26                  0                       # What write queue length does an incoming req see (Count)
system.far_mem_ctrl0.wrQLenPdf::27                  0                       # What write queue length does an incoming req see (Count)
system.far_mem_ctrl0.wrQLenPdf::28                  0                       # What write queue length does an incoming req see (Count)
system.far_mem_ctrl0.wrQLenPdf::29                  0                       # What write queue length does an incoming req see (Count)
system.far_mem_ctrl0.wrQLenPdf::30                  0                       # What write queue length does an incoming req see (Count)
system.far_mem_ctrl0.wrQLenPdf::31                  0                       # What write queue length does an incoming req see (Count)
system.far_mem_ctrl0.wrQLenPdf::32                  0                       # What write queue length does an incoming req see (Count)
system.far_mem_ctrl0.wrQLenPdf::33                  0                       # What write queue length does an incoming req see (Count)
system.far_mem_ctrl0.wrQLenPdf::34                  0                       # What write queue length does an incoming req see (Count)
system.far_mem_ctrl0.wrQLenPdf::35                  0                       # What write queue length does an incoming req see (Count)
system.far_mem_ctrl0.wrQLenPdf::36                  0                       # What write queue length does an incoming req see (Count)
system.far_mem_ctrl0.wrQLenPdf::37                  0                       # What write queue length does an incoming req see (Count)
system.far_mem_ctrl0.wrQLenPdf::38                  0                       # What write queue length does an incoming req see (Count)
system.far_mem_ctrl0.wrQLenPdf::39                  0                       # What write queue length does an incoming req see (Count)
system.far_mem_ctrl0.wrQLenPdf::40                  0                       # What write queue length does an incoming req see (Count)
system.far_mem_ctrl0.wrQLenPdf::41                  0                       # What write queue length does an incoming req see (Count)
system.far_mem_ctrl0.wrQLenPdf::42                  0                       # What write queue length does an incoming req see (Count)
system.far_mem_ctrl0.wrQLenPdf::43                  0                       # What write queue length does an incoming req see (Count)
system.far_mem_ctrl0.wrQLenPdf::44                  0                       # What write queue length does an incoming req see (Count)
system.far_mem_ctrl0.wrQLenPdf::45                  0                       # What write queue length does an incoming req see (Count)
system.far_mem_ctrl0.wrQLenPdf::46                  0                       # What write queue length does an incoming req see (Count)
system.far_mem_ctrl0.wrQLenPdf::47                  0                       # What write queue length does an incoming req see (Count)
system.far_mem_ctrl0.wrQLenPdf::48                  0                       # What write queue length does an incoming req see (Count)
system.far_mem_ctrl0.wrQLenPdf::49                  0                       # What write queue length does an incoming req see (Count)
system.far_mem_ctrl0.wrQLenPdf::50                  0                       # What write queue length does an incoming req see (Count)
system.far_mem_ctrl0.wrQLenPdf::51                  0                       # What write queue length does an incoming req see (Count)
system.far_mem_ctrl0.wrQLenPdf::52                  0                       # What write queue length does an incoming req see (Count)
system.far_mem_ctrl0.wrQLenPdf::53                  0                       # What write queue length does an incoming req see (Count)
system.far_mem_ctrl0.wrQLenPdf::54                  0                       # What write queue length does an incoming req see (Count)
system.far_mem_ctrl0.wrQLenPdf::55                  0                       # What write queue length does an incoming req see (Count)
system.far_mem_ctrl0.wrQLenPdf::56                  0                       # What write queue length does an incoming req see (Count)
system.far_mem_ctrl0.wrQLenPdf::57                  0                       # What write queue length does an incoming req see (Count)
system.far_mem_ctrl0.wrQLenPdf::58                  0                       # What write queue length does an incoming req see (Count)
system.far_mem_ctrl0.wrQLenPdf::59                  0                       # What write queue length does an incoming req see (Count)
system.far_mem_ctrl0.wrQLenPdf::60                  0                       # What write queue length does an incoming req see (Count)
system.far_mem_ctrl0.wrQLenPdf::61                  0                       # What write queue length does an incoming req see (Count)
system.far_mem_ctrl0.wrQLenPdf::62                  0                       # What write queue length does an incoming req see (Count)
system.far_mem_ctrl0.wrQLenPdf::63                  0                       # What write queue length does an incoming req see (Count)
system.far_mem_ctrl0.wrQLenPdf::64                  0                       # What write queue length does an incoming req see (Count)
system.far_mem_ctrl0.wrQLenPdf::65                  0                       # What write queue length does an incoming req see (Count)
system.far_mem_ctrl0.wrQLenPdf::66                  0                       # What write queue length does an incoming req see (Count)
system.far_mem_ctrl0.wrQLenPdf::67                  0                       # What write queue length does an incoming req see (Count)
system.far_mem_ctrl0.wrQLenPdf::68                  0                       # What write queue length does an incoming req see (Count)
system.far_mem_ctrl0.wrQLenPdf::69                  0                       # What write queue length does an incoming req see (Count)
system.far_mem_ctrl0.wrQLenPdf::70                  0                       # What write queue length does an incoming req see (Count)
system.far_mem_ctrl0.wrQLenPdf::71                  0                       # What write queue length does an incoming req see (Count)
system.far_mem_ctrl0.wrQLenPdf::72                  0                       # What write queue length does an incoming req see (Count)
system.far_mem_ctrl0.wrQLenPdf::73                  0                       # What write queue length does an incoming req see (Count)
system.far_mem_ctrl0.wrQLenPdf::74                  0                       # What write queue length does an incoming req see (Count)
system.far_mem_ctrl0.wrQLenPdf::75                  0                       # What write queue length does an incoming req see (Count)
system.far_mem_ctrl0.wrQLenPdf::76                  0                       # What write queue length does an incoming req see (Count)
system.far_mem_ctrl0.wrQLenPdf::77                  0                       # What write queue length does an incoming req see (Count)
system.far_mem_ctrl0.wrQLenPdf::78                  0                       # What write queue length does an incoming req see (Count)
system.far_mem_ctrl0.wrQLenPdf::79                  0                       # What write queue length does an incoming req see (Count)
system.far_mem_ctrl0.wrQLenPdf::80                  0                       # What write queue length does an incoming req see (Count)
system.far_mem_ctrl0.wrQLenPdf::81                  0                       # What write queue length does an incoming req see (Count)
system.far_mem_ctrl0.wrQLenPdf::82                  0                       # What write queue length does an incoming req see (Count)
system.far_mem_ctrl0.wrQLenPdf::83                  0                       # What write queue length does an incoming req see (Count)
system.far_mem_ctrl0.wrQLenPdf::84                  0                       # What write queue length does an incoming req see (Count)
system.far_mem_ctrl0.wrQLenPdf::85                  0                       # What write queue length does an incoming req see (Count)
system.far_mem_ctrl0.wrQLenPdf::86                  0                       # What write queue length does an incoming req see (Count)
system.far_mem_ctrl0.wrQLenPdf::87                  0                       # What write queue length does an incoming req see (Count)
system.far_mem_ctrl0.wrQLenPdf::88                  0                       # What write queue length does an incoming req see (Count)
system.far_mem_ctrl0.wrQLenPdf::89                  0                       # What write queue length does an incoming req see (Count)
system.far_mem_ctrl0.wrQLenPdf::90                  0                       # What write queue length does an incoming req see (Count)
system.far_mem_ctrl0.wrQLenPdf::91                  0                       # What write queue length does an incoming req see (Count)
system.far_mem_ctrl0.wrQLenPdf::92                  0                       # What write queue length does an incoming req see (Count)
system.far_mem_ctrl0.wrQLenPdf::93                  0                       # What write queue length does an incoming req see (Count)
system.far_mem_ctrl0.wrQLenPdf::94                  0                       # What write queue length does an incoming req see (Count)
system.far_mem_ctrl0.wrQLenPdf::95                  0                       # What write queue length does an incoming req see (Count)
system.far_mem_ctrl0.wrQLenPdf::96                  0                       # What write queue length does an incoming req see (Count)
system.far_mem_ctrl0.wrQLenPdf::97                  0                       # What write queue length does an incoming req see (Count)
system.far_mem_ctrl0.wrQLenPdf::98                  0                       # What write queue length does an incoming req see (Count)
system.far_mem_ctrl0.wrQLenPdf::99                  0                       # What write queue length does an incoming req see (Count)
system.far_mem_ctrl0.wrQLenPdf::100                 0                       # What write queue length does an incoming req see (Count)
system.far_mem_ctrl0.wrQLenPdf::101                 0                       # What write queue length does an incoming req see (Count)
system.far_mem_ctrl0.wrQLenPdf::102                 0                       # What write queue length does an incoming req see (Count)
system.far_mem_ctrl0.wrQLenPdf::103                 0                       # What write queue length does an incoming req see (Count)
system.far_mem_ctrl0.wrQLenPdf::104                 0                       # What write queue length does an incoming req see (Count)
system.far_mem_ctrl0.wrQLenPdf::105                 0                       # What write queue length does an incoming req see (Count)
system.far_mem_ctrl0.wrQLenPdf::106                 0                       # What write queue length does an incoming req see (Count)
system.far_mem_ctrl0.wrQLenPdf::107                 0                       # What write queue length does an incoming req see (Count)
system.far_mem_ctrl0.wrQLenPdf::108                 0                       # What write queue length does an incoming req see (Count)
system.far_mem_ctrl0.wrQLenPdf::109                 0                       # What write queue length does an incoming req see (Count)
system.far_mem_ctrl0.wrQLenPdf::110                 0                       # What write queue length does an incoming req see (Count)
system.far_mem_ctrl0.wrQLenPdf::111                 0                       # What write queue length does an incoming req see (Count)
system.far_mem_ctrl0.wrQLenPdf::112                 0                       # What write queue length does an incoming req see (Count)
system.far_mem_ctrl0.wrQLenPdf::113                 0                       # What write queue length does an incoming req see (Count)
system.far_mem_ctrl0.wrQLenPdf::114                 0                       # What write queue length does an incoming req see (Count)
system.far_mem_ctrl0.wrQLenPdf::115                 0                       # What write queue length does an incoming req see (Count)
system.far_mem_ctrl0.wrQLenPdf::116                 0                       # What write queue length does an incoming req see (Count)
system.far_mem_ctrl0.wrQLenPdf::117                 0                       # What write queue length does an incoming req see (Count)
system.far_mem_ctrl0.wrQLenPdf::118                 0                       # What write queue length does an incoming req see (Count)
system.far_mem_ctrl0.wrQLenPdf::119                 0                       # What write queue length does an incoming req see (Count)
system.far_mem_ctrl0.wrQLenPdf::120                 0                       # What write queue length does an incoming req see (Count)
system.far_mem_ctrl0.wrQLenPdf::121                 0                       # What write queue length does an incoming req see (Count)
system.far_mem_ctrl0.wrQLenPdf::122                 0                       # What write queue length does an incoming req see (Count)
system.far_mem_ctrl0.wrQLenPdf::123                 0                       # What write queue length does an incoming req see (Count)
system.far_mem_ctrl0.wrQLenPdf::124                 0                       # What write queue length does an incoming req see (Count)
system.far_mem_ctrl0.wrQLenPdf::125                 0                       # What write queue length does an incoming req see (Count)
system.far_mem_ctrl0.wrQLenPdf::126                 0                       # What write queue length does an incoming req see (Count)
system.far_mem_ctrl0.wrQLenPdf::127                 0                       # What write queue length does an incoming req see (Count)
system.far_mem_ctrl0.bytesReadWrQ                   0                       # Total number of bytes read from write queue (Byte)
system.far_mem_ctrl0.bytesReadSys              369984                       # Total read bytes from the system interface side (Byte)
system.far_mem_ctrl0.bytesWrittenSys                0                       # Total written bytes from the system interface side (Byte)
system.far_mem_ctrl0.avgRdBWSys          3697750770.81448984                       # Average system read bandwidth in Byte/s ((Byte/Second))
system.far_mem_ctrl0.avgWrBWSys            0.00000000                       # Average system write bandwidth in Byte/s ((Byte/Second))
system.far_mem_ctrl0.totGap                  99963980                       # Total gap between requests (Tick)
system.far_mem_ctrl0.avgGap                  17291.81                       # Average gap between requests ((Tick/Count))
system.far_mem_ctrl0.requestorReadBytes::writebacks       368832                       # Per-requestor bytes read from memory (Byte)
system.far_mem_ctrl0.requestorReadRate::writebacks 3686237275.939094543457                       # Per-requestor bytes read from memory rate ((Byte/Second))
system.far_mem_ctrl0.requestorReadAccesses::writebacks         5781                       # Per-requestor read serviced memory accesses (Count)
system.far_mem_ctrl0.requestorReadTotalLat::writebacks   1475006724                       # Per-requestor read total memory access latency (Tick)
system.far_mem_ctrl0.requestorReadAvgLat::writebacks    255147.33                       # Per-requestor read average memory access latency ((Tick/Count))
system.far_mem_ctrl0.dram.bytesRead::writebacks       368768                       # Number of bytes read from this memory (Byte)
system.far_mem_ctrl0.dram.bytesRead::total       368768                       # Number of bytes read from this memory (Byte)
system.far_mem_ctrl0.dram.numReads::writebacks         5762                       # Number of read requests responded to by this memory (Count)
system.far_mem_ctrl0.dram.numReads::total         5762                       # Number of read requests responded to by this memory (Count)
system.far_mem_ctrl0.dram.bwRead::writebacks   3685597637                       # Total read bandwidth from this memory ((Byte/Second))
system.far_mem_ctrl0.dram.bwRead::total    3685597637                       # Total read bandwidth from this memory ((Byte/Second))
system.far_mem_ctrl0.dram.bwTotal::writebacks   3685597637                       # Total bandwidth to/from this memory ((Byte/Second))
system.far_mem_ctrl0.dram.bwTotal::total   3685597637                       # Total bandwidth to/from this memory ((Byte/Second))
system.far_mem_ctrl0.dram.readBursts             5763                       # Number of NVM read bursts (Count)
system.far_mem_ctrl0.dram.writeBursts               0                       # Number of NVM write bursts (Count)
system.far_mem_ctrl0.dram.perBankRdBursts::0          383                       # Per bank write bursts (Count)
system.far_mem_ctrl0.dram.perBankRdBursts::1          350                       # Per bank write bursts (Count)
system.far_mem_ctrl0.dram.perBankRdBursts::2          361                       # Per bank write bursts (Count)
system.far_mem_ctrl0.dram.perBankRdBursts::3          338                       # Per bank write bursts (Count)
system.far_mem_ctrl0.dram.perBankRdBursts::4          348                       # Per bank write bursts (Count)
system.far_mem_ctrl0.dram.perBankRdBursts::5          359                       # Per bank write bursts (Count)
system.far_mem_ctrl0.dram.perBankRdBursts::6          351                       # Per bank write bursts (Count)
system.far_mem_ctrl0.dram.perBankRdBursts::7          354                       # Per bank write bursts (Count)
system.far_mem_ctrl0.dram.perBankRdBursts::8          343                       # Per bank write bursts (Count)
system.far_mem_ctrl0.dram.perBankRdBursts::9          378                       # Per bank write bursts (Count)
system.far_mem_ctrl0.dram.perBankRdBursts::10          369                       # Per bank write bursts (Count)
system.far_mem_ctrl0.dram.perBankRdBursts::11          375                       # Per bank write bursts (Count)
system.far_mem_ctrl0.dram.perBankRdBursts::12          361                       # Per bank write bursts (Count)
system.far_mem_ctrl0.dram.perBankRdBursts::13          397                       # Per bank write bursts (Count)
system.far_mem_ctrl0.dram.perBankRdBursts::14          343                       # Per bank write bursts (Count)
system.far_mem_ctrl0.dram.perBankRdBursts::15          353                       # Per bank write bursts (Count)
system.far_mem_ctrl0.dram.perBankWrBursts::0            0                       # Per bank write bursts (Count)
system.far_mem_ctrl0.dram.perBankWrBursts::1            0                       # Per bank write bursts (Count)
system.far_mem_ctrl0.dram.perBankWrBursts::2            0                       # Per bank write bursts (Count)
system.far_mem_ctrl0.dram.perBankWrBursts::3            0                       # Per bank write bursts (Count)
system.far_mem_ctrl0.dram.perBankWrBursts::4            0                       # Per bank write bursts (Count)
system.far_mem_ctrl0.dram.perBankWrBursts::5            0                       # Per bank write bursts (Count)
system.far_mem_ctrl0.dram.perBankWrBursts::6            0                       # Per bank write bursts (Count)
system.far_mem_ctrl0.dram.perBankWrBursts::7            0                       # Per bank write bursts (Count)
system.far_mem_ctrl0.dram.perBankWrBursts::8            0                       # Per bank write bursts (Count)
system.far_mem_ctrl0.dram.perBankWrBursts::9            0                       # Per bank write bursts (Count)
system.far_mem_ctrl0.dram.perBankWrBursts::10            0                       # Per bank write bursts (Count)
system.far_mem_ctrl0.dram.perBankWrBursts::11            0                       # Per bank write bursts (Count)
system.far_mem_ctrl0.dram.perBankWrBursts::12            0                       # Per bank write bursts (Count)
system.far_mem_ctrl0.dram.perBankWrBursts::13            0                       # Per bank write bursts (Count)
system.far_mem_ctrl0.dram.perBankWrBursts::14            0                       # Per bank write bursts (Count)
system.far_mem_ctrl0.dram.perBankWrBursts::15            0                       # Per bank write bursts (Count)
system.far_mem_ctrl0.dram.totQLat          1374200328                       # Total ticks spent queuing (Tick)
system.far_mem_ctrl0.dram.totBusLat          19202316                       # Total ticks spent in databus transfers (Tick)
system.far_mem_ctrl0.dram.totMemAccLat     1475006724                       # Total ticks spent from burst creation until serviced by the NVM (Tick)
system.far_mem_ctrl0.dram.avgQLat           238452.25                       # Average queueing delay per NVM burst ((Tick/Count))
system.far_mem_ctrl0.dram.avgBusLat           3332.00                       # Average bus latency per NVM burst ((Tick/Count))
system.far_mem_ctrl0.dram.avgMemAccLat      255944.25                       # Average memory access latency per NVM burst ((Tick/Count))
system.far_mem_ctrl0.dram.avgRdBW             3686.24                       # Average DRAM read bandwidth in MiBytes/s ((Byte/Second))
system.far_mem_ctrl0.dram.avgWrBW                0.00                       # Average DRAM write bandwidth in MiBytes/s ((Byte/Second))
system.far_mem_ctrl0.dram.peakBW             19207.00                       # Theoretical peak bandwidth in MiByte/s ((Byte/Second))
system.far_mem_ctrl0.dram.busUtil               19.19                       # NVM Data bus utilization in percentage (Ratio)
system.far_mem_ctrl0.dram.busUtilRead           19.19                       # NVM Data bus read utilization in percentage (Ratio)
system.far_mem_ctrl0.dram.busUtilWrite           0.00                       # NVM Data bus write utilization in percentage (Ratio)
system.far_mem_ctrl0.dram.pendingReads::samples         5763                       # Reads issued to NVM for which data has not been transferred (Count)
system.far_mem_ctrl0.dram.pendingReads::mean    13.574527                       # Reads issued to NVM for which data has not been transferred (Count)
system.far_mem_ctrl0.dram.pendingReads::stdev     5.266365                       # Reads issued to NVM for which data has not been transferred (Count)
system.far_mem_ctrl0.dram.pendingReads::0            2      0.03%      0.03% # Reads issued to NVM for which data has not been transferred (Count)
system.far_mem_ctrl0.dram.pendingReads::1           13      0.23%      0.26% # Reads issued to NVM for which data has not been transferred (Count)
system.far_mem_ctrl0.dram.pendingReads::2           20      0.35%      0.61% # Reads issued to NVM for which data has not been transferred (Count)
system.far_mem_ctrl0.dram.pendingReads::3           26      0.45%      1.06% # Reads issued to NVM for which data has not been transferred (Count)
system.far_mem_ctrl0.dram.pendingReads::4           44      0.76%      1.82% # Reads issued to NVM for which data has not been transferred (Count)
system.far_mem_ctrl0.dram.pendingReads::5           71      1.23%      3.05% # Reads issued to NVM for which data has not been transferred (Count)
system.far_mem_ctrl0.dram.pendingReads::6          114      1.98%      5.03% # Reads issued to NVM for which data has not been transferred (Count)
system.far_mem_ctrl0.dram.pendingReads::7          200      3.47%      8.50% # Reads issued to NVM for which data has not been transferred (Count)
system.far_mem_ctrl0.dram.pendingReads::8          267      4.63%     13.14% # Reads issued to NVM for which data has not been transferred (Count)
system.far_mem_ctrl0.dram.pendingReads::9          321      5.57%     18.71% # Reads issued to NVM for which data has not been transferred (Count)
system.far_mem_ctrl0.dram.pendingReads::10          399      6.92%     25.63% # Reads issued to NVM for which data has not been transferred (Count)
system.far_mem_ctrl0.dram.pendingReads::11          431      7.48%     33.11% # Reads issued to NVM for which data has not been transferred (Count)
system.far_mem_ctrl0.dram.pendingReads::12          477      8.28%     41.38% # Reads issued to NVM for which data has not been transferred (Count)
system.far_mem_ctrl0.dram.pendingReads::13          535      9.28%     50.67% # Reads issued to NVM for which data has not been transferred (Count)
system.far_mem_ctrl0.dram.pendingReads::14          562      9.75%     60.42% # Reads issued to NVM for which data has not been transferred (Count)
system.far_mem_ctrl0.dram.pendingReads::15          554      9.61%     70.03% # Reads issued to NVM for which data has not been transferred (Count)
system.far_mem_ctrl0.dram.pendingReads::16          471      8.17%     78.21% # Reads issued to NVM for which data has not been transferred (Count)
system.far_mem_ctrl0.dram.pendingReads::17          399      6.92%     85.13% # Reads issued to NVM for which data has not been transferred (Count)
system.far_mem_ctrl0.dram.pendingReads::18          306      5.31%     90.44% # Reads issued to NVM for which data has not been transferred (Count)
system.far_mem_ctrl0.dram.pendingReads::19          204      3.54%     93.98% # Reads issued to NVM for which data has not been transferred (Count)
system.far_mem_ctrl0.dram.pendingReads::20          122      2.12%     96.10% # Reads issued to NVM for which data has not been transferred (Count)
system.far_mem_ctrl0.dram.pendingReads::21           51      0.88%     96.98% # Reads issued to NVM for which data has not been transferred (Count)
system.far_mem_ctrl0.dram.pendingReads::22           22      0.38%     97.36% # Reads issued to NVM for which data has not been transferred (Count)
system.far_mem_ctrl0.dram.pendingReads::23           11      0.19%     97.55% # Reads issued to NVM for which data has not been transferred (Count)
system.far_mem_ctrl0.dram.pendingReads::24           12      0.21%     97.76% # Reads issued to NVM for which data has not been transferred (Count)
system.far_mem_ctrl0.dram.pendingReads::25            5      0.09%     97.85% # Reads issued to NVM for which data has not been transferred (Count)
system.far_mem_ctrl0.dram.pendingReads::26            8      0.14%     97.99% # Reads issued to NVM for which data has not been transferred (Count)
system.far_mem_ctrl0.dram.pendingReads::27            9      0.16%     98.14% # Reads issued to NVM for which data has not been transferred (Count)
system.far_mem_ctrl0.dram.pendingReads::28            8      0.14%     98.28% # Reads issued to NVM for which data has not been transferred (Count)
system.far_mem_ctrl0.dram.pendingReads::29            4      0.07%     98.35% # Reads issued to NVM for which data has not been transferred (Count)
system.far_mem_ctrl0.dram.pendingReads::30            2      0.03%     98.39% # Reads issued to NVM for which data has not been transferred (Count)
system.far_mem_ctrl0.dram.pendingReads::31            5      0.09%     98.47% # Reads issued to NVM for which data has not been transferred (Count)
system.far_mem_ctrl0.dram.pendingReads::32            3      0.05%     98.53% # Reads issued to NVM for which data has not been transferred (Count)
system.far_mem_ctrl0.dram.pendingReads::33            5      0.09%     98.61% # Reads issued to NVM for which data has not been transferred (Count)
system.far_mem_ctrl0.dram.pendingReads::34            6      0.10%     98.72% # Reads issued to NVM for which data has not been transferred (Count)
system.far_mem_ctrl0.dram.pendingReads::35            9      0.16%     98.87% # Reads issued to NVM for which data has not been transferred (Count)
system.far_mem_ctrl0.dram.pendingReads::36            4      0.07%     98.94% # Reads issued to NVM for which data has not been transferred (Count)
system.far_mem_ctrl0.dram.pendingReads::37            5      0.09%     99.03% # Reads issued to NVM for which data has not been transferred (Count)
system.far_mem_ctrl0.dram.pendingReads::38            5      0.09%     99.12% # Reads issued to NVM for which data has not been transferred (Count)
system.far_mem_ctrl0.dram.pendingReads::39            6      0.10%     99.22% # Reads issued to NVM for which data has not been transferred (Count)
system.far_mem_ctrl0.dram.pendingReads::40            9      0.16%     99.38% # Reads issued to NVM for which data has not been transferred (Count)
system.far_mem_ctrl0.dram.pendingReads::41            7      0.12%     99.50% # Reads issued to NVM for which data has not been transferred (Count)
system.far_mem_ctrl0.dram.pendingReads::42            2      0.03%     99.53% # Reads issued to NVM for which data has not been transferred (Count)
system.far_mem_ctrl0.dram.pendingReads::43            3      0.05%     99.58% # Reads issued to NVM for which data has not been transferred (Count)
system.far_mem_ctrl0.dram.pendingReads::44            4      0.07%     99.65% # Reads issued to NVM for which data has not been transferred (Count)
system.far_mem_ctrl0.dram.pendingReads::45            6      0.10%     99.76% # Reads issued to NVM for which data has not been transferred (Count)
system.far_mem_ctrl0.dram.pendingReads::46            4      0.07%     99.83% # Reads issued to NVM for which data has not been transferred (Count)
system.far_mem_ctrl0.dram.pendingReads::47            4      0.07%     99.90% # Reads issued to NVM for which data has not been transferred (Count)
system.far_mem_ctrl0.dram.pendingReads::48            4      0.07%     99.97% # Reads issued to NVM for which data has not been transferred (Count)
system.far_mem_ctrl0.dram.pendingReads::49            2      0.03%    100.00% # Reads issued to NVM for which data has not been transferred (Count)
system.far_mem_ctrl0.dram.pendingReads::total         5763                       # Reads issued to NVM for which data has not been transferred (Count)
system.far_mem_ctrl0.dram.bytesPerBank::samples         5781                       # Bytes read within a bank before loading new bank (Byte)
system.far_mem_ctrl0.dram.bytesPerBank::mean           64                       # Bytes read within a bank before loading new bank (Byte)
system.far_mem_ctrl0.dram.bytesPerBank::gmean    64.000000                       # Bytes read within a bank before loading new bank (Byte)
system.far_mem_ctrl0.dram.bytesPerBank::64         5781    100.00%    100.00% # Bytes read within a bank before loading new bank (Byte)
system.far_mem_ctrl0.dram.bytesPerBank::total         5781                       # Bytes read within a bank before loading new bank (Byte)
system.far_mem_ctrl0.dram.power_state.pwrStateResidencyTicks::UNDEFINED    100056500                       # Cumulative time (in ticks) in various power states (Tick)
system.far_mem_ctrl0.power_state.pwrStateResidencyTicks::UNDEFINED    100056500                       # Cumulative time (in ticks) in various power states (Tick)
system.far_mem_ctrl1.avgPriority_writebacks::samples      5711.00                       # Average QoS priority value for accepted requests (Count)
system.far_mem_ctrl1.priorityMinLatency  0.000000317492                       # per QoS priority minimum request to response latency (Second)
system.far_mem_ctrl1.priorityMaxLatency  0.000002290492                       # per QoS priority maximum request to response latency (Second)
system.far_mem_ctrl1.numReadWriteTurnArounds            0                       # Number of turnarounds from READ to WRITE (Count)
system.far_mem_ctrl1.numWriteReadTurnArounds            0                       # Number of turnarounds from WRITE to READ (Count)
system.far_mem_ctrl1.numStayReadState           17056                       # Number of times bus staying in READ state (Count)
system.far_mem_ctrl1.numStayWriteState              0                       # Number of times bus staying in WRITE state (Count)
system.far_mem_ctrl1.readReqs                    5711                       # Number of read requests accepted (Count)
system.far_mem_ctrl1.writeReqs                      0                       # Number of write requests accepted (Count)
system.far_mem_ctrl1.readBursts                  5711                       # Number of controller read bursts, including those serviced by the write queue (Count)
system.far_mem_ctrl1.writeBursts                    0                       # Number of controller write bursts, including those merged in the write queue (Count)
system.far_mem_ctrl1.servicedByWrQ                  0                       # Number of controller read bursts serviced by the write queue (Count)
system.far_mem_ctrl1.mergedWrBursts                 0                       # Number of controller write bursts merged with an existing one (Count)
system.far_mem_ctrl1.neitherReadNorWriteReqs            0                       # Number of requests that are neither read nor write (Count)
system.far_mem_ctrl1.avgRdQLen                  17.64                       # Average read queue length when enqueuing ((Count/Tick))
system.far_mem_ctrl1.avgWrQLen                   0.00                       # Average write queue length when enqueuing ((Count/Tick))
system.far_mem_ctrl1.numRdRetry                     0                       # Number of times read queue was full causing retry (Count)
system.far_mem_ctrl1.numWrRetry                     0                       # Number of times write queue was full causing retry (Count)
system.far_mem_ctrl1.readPktSize::0                 0                       # Read request sizes (log2) (Count)
system.far_mem_ctrl1.readPktSize::1                 0                       # Read request sizes (log2) (Count)
system.far_mem_ctrl1.readPktSize::2                 0                       # Read request sizes (log2) (Count)
system.far_mem_ctrl1.readPktSize::3                 0                       # Read request sizes (log2) (Count)
system.far_mem_ctrl1.readPktSize::4                 0                       # Read request sizes (log2) (Count)
system.far_mem_ctrl1.readPktSize::5                 0                       # Read request sizes (log2) (Count)
system.far_mem_ctrl1.readPktSize::6              5711                       # Read request sizes (log2) (Count)
system.far_mem_ctrl1.writePktSize::0                0                       # Write request sizes (log2) (Count)
system.far_mem_ctrl1.writePktSize::1                0                       # Write request sizes (log2) (Count)
system.far_mem_ctrl1.writePktSize::2                0                       # Write request sizes (log2) (Count)
system.far_mem_ctrl1.writePktSize::3                0                       # Write request sizes (log2) (Count)
system.far_mem_ctrl1.writePktSize::4                0                       # Write request sizes (log2) (Count)
system.far_mem_ctrl1.writePktSize::5                0                       # Write request sizes (log2) (Count)
system.far_mem_ctrl1.writePktSize::6                0                       # Write request sizes (log2) (Count)
system.far_mem_ctrl1.rdQLenPdf::0                   3                       # What read queue length does an incoming req see (Count)
system.far_mem_ctrl1.rdQLenPdf::1                  11                       # What read queue length does an incoming req see (Count)
system.far_mem_ctrl1.rdQLenPdf::2                  23                       # What read queue length does an incoming req see (Count)
system.far_mem_ctrl1.rdQLenPdf::3                  26                       # What read queue length does an incoming req see (Count)
system.far_mem_ctrl1.rdQLenPdf::4                  46                       # What read queue length does an incoming req see (Count)
system.far_mem_ctrl1.rdQLenPdf::5                  68                       # What read queue length does an incoming req see (Count)
system.far_mem_ctrl1.rdQLenPdf::6                 115                       # What read queue length does an incoming req see (Count)
system.far_mem_ctrl1.rdQLenPdf::7                 181                       # What read queue length does an incoming req see (Count)
system.far_mem_ctrl1.rdQLenPdf::8                 260                       # What read queue length does an incoming req see (Count)
system.far_mem_ctrl1.rdQLenPdf::9                 329                       # What read queue length does an incoming req see (Count)
system.far_mem_ctrl1.rdQLenPdf::10                348                       # What read queue length does an incoming req see (Count)
system.far_mem_ctrl1.rdQLenPdf::11                376                       # What read queue length does an incoming req see (Count)
system.far_mem_ctrl1.rdQLenPdf::12                449                       # What read queue length does an incoming req see (Count)
system.far_mem_ctrl1.rdQLenPdf::13                473                       # What read queue length does an incoming req see (Count)
system.far_mem_ctrl1.rdQLenPdf::14                507                       # What read queue length does an incoming req see (Count)
system.far_mem_ctrl1.rdQLenPdf::15                513                       # What read queue length does an incoming req see (Count)
system.far_mem_ctrl1.rdQLenPdf::16                490                       # What read queue length does an incoming req see (Count)
system.far_mem_ctrl1.rdQLenPdf::17                455                       # What read queue length does an incoming req see (Count)
system.far_mem_ctrl1.rdQLenPdf::18                329                       # What read queue length does an incoming req see (Count)
system.far_mem_ctrl1.rdQLenPdf::19                223                       # What read queue length does an incoming req see (Count)
system.far_mem_ctrl1.rdQLenPdf::20                176                       # What read queue length does an incoming req see (Count)
system.far_mem_ctrl1.rdQLenPdf::21                 78                       # What read queue length does an incoming req see (Count)
system.far_mem_ctrl1.rdQLenPdf::22                 52                       # What read queue length does an incoming req see (Count)
system.far_mem_ctrl1.rdQLenPdf::23                 33                       # What read queue length does an incoming req see (Count)
system.far_mem_ctrl1.rdQLenPdf::24                 12                       # What read queue length does an incoming req see (Count)
system.far_mem_ctrl1.rdQLenPdf::25                  6                       # What read queue length does an incoming req see (Count)
system.far_mem_ctrl1.rdQLenPdf::26                  4                       # What read queue length does an incoming req see (Count)
system.far_mem_ctrl1.rdQLenPdf::27                  6                       # What read queue length does an incoming req see (Count)
system.far_mem_ctrl1.rdQLenPdf::28                  5                       # What read queue length does an incoming req see (Count)
system.far_mem_ctrl1.rdQLenPdf::29                  3                       # What read queue length does an incoming req see (Count)
system.far_mem_ctrl1.rdQLenPdf::30                  3                       # What read queue length does an incoming req see (Count)
system.far_mem_ctrl1.rdQLenPdf::31                  4                       # What read queue length does an incoming req see (Count)
system.far_mem_ctrl1.rdQLenPdf::32                  4                       # What read queue length does an incoming req see (Count)
system.far_mem_ctrl1.rdQLenPdf::33                  4                       # What read queue length does an incoming req see (Count)
system.far_mem_ctrl1.rdQLenPdf::34                 13                       # What read queue length does an incoming req see (Count)
system.far_mem_ctrl1.rdQLenPdf::35                  4                       # What read queue length does an incoming req see (Count)
system.far_mem_ctrl1.rdQLenPdf::36                  1                       # What read queue length does an incoming req see (Count)
system.far_mem_ctrl1.rdQLenPdf::37                  1                       # What read queue length does an incoming req see (Count)
system.far_mem_ctrl1.rdQLenPdf::38                  3                       # What read queue length does an incoming req see (Count)
system.far_mem_ctrl1.rdQLenPdf::39                  5                       # What read queue length does an incoming req see (Count)
system.far_mem_ctrl1.rdQLenPdf::40                 10                       # What read queue length does an incoming req see (Count)
system.far_mem_ctrl1.rdQLenPdf::41                  6                       # What read queue length does an incoming req see (Count)
system.far_mem_ctrl1.rdQLenPdf::42                  8                       # What read queue length does an incoming req see (Count)
system.far_mem_ctrl1.rdQLenPdf::43                  3                       # What read queue length does an incoming req see (Count)
system.far_mem_ctrl1.rdQLenPdf::44                  3                       # What read queue length does an incoming req see (Count)
system.far_mem_ctrl1.rdQLenPdf::45                  3                       # What read queue length does an incoming req see (Count)
system.far_mem_ctrl1.rdQLenPdf::46                  9                       # What read queue length does an incoming req see (Count)
system.far_mem_ctrl1.rdQLenPdf::47                  3                       # What read queue length does an incoming req see (Count)
system.far_mem_ctrl1.rdQLenPdf::48                  3                       # What read queue length does an incoming req see (Count)
system.far_mem_ctrl1.rdQLenPdf::49                  3                       # What read queue length does an incoming req see (Count)
system.far_mem_ctrl1.rdQLenPdf::50                 12                       # What read queue length does an incoming req see (Count)
system.far_mem_ctrl1.rdQLenPdf::51                  2                       # What read queue length does an incoming req see (Count)
system.far_mem_ctrl1.rdQLenPdf::52                  3                       # What read queue length does an incoming req see (Count)
system.far_mem_ctrl1.rdQLenPdf::53                  1                       # What read queue length does an incoming req see (Count)
system.far_mem_ctrl1.rdQLenPdf::54                  0                       # What read queue length does an incoming req see (Count)
system.far_mem_ctrl1.rdQLenPdf::55                  0                       # What read queue length does an incoming req see (Count)
system.far_mem_ctrl1.rdQLenPdf::56                  0                       # What read queue length does an incoming req see (Count)
system.far_mem_ctrl1.rdQLenPdf::57                  0                       # What read queue length does an incoming req see (Count)
system.far_mem_ctrl1.rdQLenPdf::58                  0                       # What read queue length does an incoming req see (Count)
system.far_mem_ctrl1.rdQLenPdf::59                  0                       # What read queue length does an incoming req see (Count)
system.far_mem_ctrl1.rdQLenPdf::60                  0                       # What read queue length does an incoming req see (Count)
system.far_mem_ctrl1.rdQLenPdf::61                  0                       # What read queue length does an incoming req see (Count)
system.far_mem_ctrl1.rdQLenPdf::62                  0                       # What read queue length does an incoming req see (Count)
system.far_mem_ctrl1.rdQLenPdf::63                  0                       # What read queue length does an incoming req see (Count)
system.far_mem_ctrl1.rdQLenPdf::64                  0                       # What read queue length does an incoming req see (Count)
system.far_mem_ctrl1.rdQLenPdf::65                  0                       # What read queue length does an incoming req see (Count)
system.far_mem_ctrl1.rdQLenPdf::66                  0                       # What read queue length does an incoming req see (Count)
system.far_mem_ctrl1.rdQLenPdf::67                  0                       # What read queue length does an incoming req see (Count)
system.far_mem_ctrl1.rdQLenPdf::68                  0                       # What read queue length does an incoming req see (Count)
system.far_mem_ctrl1.rdQLenPdf::69                  0                       # What read queue length does an incoming req see (Count)
system.far_mem_ctrl1.rdQLenPdf::70                  0                       # What read queue length does an incoming req see (Count)
system.far_mem_ctrl1.rdQLenPdf::71                  0                       # What read queue length does an incoming req see (Count)
system.far_mem_ctrl1.rdQLenPdf::72                  0                       # What read queue length does an incoming req see (Count)
system.far_mem_ctrl1.rdQLenPdf::73                  0                       # What read queue length does an incoming req see (Count)
system.far_mem_ctrl1.rdQLenPdf::74                  0                       # What read queue length does an incoming req see (Count)
system.far_mem_ctrl1.rdQLenPdf::75                  0                       # What read queue length does an incoming req see (Count)
system.far_mem_ctrl1.rdQLenPdf::76                  0                       # What read queue length does an incoming req see (Count)
system.far_mem_ctrl1.rdQLenPdf::77                  0                       # What read queue length does an incoming req see (Count)
system.far_mem_ctrl1.rdQLenPdf::78                  0                       # What read queue length does an incoming req see (Count)
system.far_mem_ctrl1.rdQLenPdf::79                  0                       # What read queue length does an incoming req see (Count)
system.far_mem_ctrl1.rdQLenPdf::80                  0                       # What read queue length does an incoming req see (Count)
system.far_mem_ctrl1.rdQLenPdf::81                  0                       # What read queue length does an incoming req see (Count)
system.far_mem_ctrl1.rdQLenPdf::82                  0                       # What read queue length does an incoming req see (Count)
system.far_mem_ctrl1.rdQLenPdf::83                  0                       # What read queue length does an incoming req see (Count)
system.far_mem_ctrl1.rdQLenPdf::84                  0                       # What read queue length does an incoming req see (Count)
system.far_mem_ctrl1.rdQLenPdf::85                  0                       # What read queue length does an incoming req see (Count)
system.far_mem_ctrl1.rdQLenPdf::86                  0                       # What read queue length does an incoming req see (Count)
system.far_mem_ctrl1.rdQLenPdf::87                  0                       # What read queue length does an incoming req see (Count)
system.far_mem_ctrl1.rdQLenPdf::88                  0                       # What read queue length does an incoming req see (Count)
system.far_mem_ctrl1.rdQLenPdf::89                  0                       # What read queue length does an incoming req see (Count)
system.far_mem_ctrl1.rdQLenPdf::90                  0                       # What read queue length does an incoming req see (Count)
system.far_mem_ctrl1.rdQLenPdf::91                  0                       # What read queue length does an incoming req see (Count)
system.far_mem_ctrl1.rdQLenPdf::92                  0                       # What read queue length does an incoming req see (Count)
system.far_mem_ctrl1.rdQLenPdf::93                  0                       # What read queue length does an incoming req see (Count)
system.far_mem_ctrl1.rdQLenPdf::94                  0                       # What read queue length does an incoming req see (Count)
system.far_mem_ctrl1.rdQLenPdf::95                  0                       # What read queue length does an incoming req see (Count)
system.far_mem_ctrl1.rdQLenPdf::96                  0                       # What read queue length does an incoming req see (Count)
system.far_mem_ctrl1.rdQLenPdf::97                  0                       # What read queue length does an incoming req see (Count)
system.far_mem_ctrl1.rdQLenPdf::98                  0                       # What read queue length does an incoming req see (Count)
system.far_mem_ctrl1.rdQLenPdf::99                  0                       # What read queue length does an incoming req see (Count)
system.far_mem_ctrl1.rdQLenPdf::100                 0                       # What read queue length does an incoming req see (Count)
system.far_mem_ctrl1.rdQLenPdf::101                 0                       # What read queue length does an incoming req see (Count)
system.far_mem_ctrl1.rdQLenPdf::102                 0                       # What read queue length does an incoming req see (Count)
system.far_mem_ctrl1.rdQLenPdf::103                 0                       # What read queue length does an incoming req see (Count)
system.far_mem_ctrl1.rdQLenPdf::104                 0                       # What read queue length does an incoming req see (Count)
system.far_mem_ctrl1.rdQLenPdf::105                 0                       # What read queue length does an incoming req see (Count)
system.far_mem_ctrl1.rdQLenPdf::106                 0                       # What read queue length does an incoming req see (Count)
system.far_mem_ctrl1.rdQLenPdf::107                 0                       # What read queue length does an incoming req see (Count)
system.far_mem_ctrl1.rdQLenPdf::108                 0                       # What read queue length does an incoming req see (Count)
system.far_mem_ctrl1.rdQLenPdf::109                 0                       # What read queue length does an incoming req see (Count)
system.far_mem_ctrl1.rdQLenPdf::110                 0                       # What read queue length does an incoming req see (Count)
system.far_mem_ctrl1.rdQLenPdf::111                 0                       # What read queue length does an incoming req see (Count)
system.far_mem_ctrl1.rdQLenPdf::112                 0                       # What read queue length does an incoming req see (Count)
system.far_mem_ctrl1.rdQLenPdf::113                 0                       # What read queue length does an incoming req see (Count)
system.far_mem_ctrl1.rdQLenPdf::114                 0                       # What read queue length does an incoming req see (Count)
system.far_mem_ctrl1.rdQLenPdf::115                 0                       # What read queue length does an incoming req see (Count)
system.far_mem_ctrl1.rdQLenPdf::116                 0                       # What read queue length does an incoming req see (Count)
system.far_mem_ctrl1.rdQLenPdf::117                 0                       # What read queue length does an incoming req see (Count)
system.far_mem_ctrl1.rdQLenPdf::118                 0                       # What read queue length does an incoming req see (Count)
system.far_mem_ctrl1.rdQLenPdf::119                 0                       # What read queue length does an incoming req see (Count)
system.far_mem_ctrl1.rdQLenPdf::120                 0                       # What read queue length does an incoming req see (Count)
system.far_mem_ctrl1.rdQLenPdf::121                 0                       # What read queue length does an incoming req see (Count)
system.far_mem_ctrl1.rdQLenPdf::122                 0                       # What read queue length does an incoming req see (Count)
system.far_mem_ctrl1.rdQLenPdf::123                 0                       # What read queue length does an incoming req see (Count)
system.far_mem_ctrl1.rdQLenPdf::124                 0                       # What read queue length does an incoming req see (Count)
system.far_mem_ctrl1.rdQLenPdf::125                 0                       # What read queue length does an incoming req see (Count)
system.far_mem_ctrl1.rdQLenPdf::126                 0                       # What read queue length does an incoming req see (Count)
system.far_mem_ctrl1.rdQLenPdf::127                 0                       # What read queue length does an incoming req see (Count)
system.far_mem_ctrl1.wrQLenPdf::0                   0                       # What write queue length does an incoming req see (Count)
system.far_mem_ctrl1.wrQLenPdf::1                   0                       # What write queue length does an incoming req see (Count)
system.far_mem_ctrl1.wrQLenPdf::2                   0                       # What write queue length does an incoming req see (Count)
system.far_mem_ctrl1.wrQLenPdf::3                   0                       # What write queue length does an incoming req see (Count)
system.far_mem_ctrl1.wrQLenPdf::4                   0                       # What write queue length does an incoming req see (Count)
system.far_mem_ctrl1.wrQLenPdf::5                   0                       # What write queue length does an incoming req see (Count)
system.far_mem_ctrl1.wrQLenPdf::6                   0                       # What write queue length does an incoming req see (Count)
system.far_mem_ctrl1.wrQLenPdf::7                   0                       # What write queue length does an incoming req see (Count)
system.far_mem_ctrl1.wrQLenPdf::8                   0                       # What write queue length does an incoming req see (Count)
system.far_mem_ctrl1.wrQLenPdf::9                   0                       # What write queue length does an incoming req see (Count)
system.far_mem_ctrl1.wrQLenPdf::10                  0                       # What write queue length does an incoming req see (Count)
system.far_mem_ctrl1.wrQLenPdf::11                  0                       # What write queue length does an incoming req see (Count)
system.far_mem_ctrl1.wrQLenPdf::12                  0                       # What write queue length does an incoming req see (Count)
system.far_mem_ctrl1.wrQLenPdf::13                  0                       # What write queue length does an incoming req see (Count)
[...]
system.membus.pktCount_system.generators01.port::system.mem_ctrl0.port          773                       # Packet count per connected requestor and responder (Count)
system.membus.pktCount_system.generators01.port::system.mem_ctrl1.port          700                       # Packet count per connected requestor and responder (Count)
system.membus.pktCount_system.generators01.port::total         1473                       # Packet count per connected requestor and responder (Count)
system.membus.pktCount_system.generators02.port::system.mem_ctrl0.port          819                       # Packet count per connected requestor and responder (Count)
system.membus.pktCount_system.generators02.port::system.mem_ctrl1.port          730                       # Packet count per connected requestor and responder (Count)
system.membus.pktCount_system.generators02.port::total         1549                       # Packet count per connected requestor and responder (Count)
system.membus.pktCount_system.generators03.port::system.mem_ctrl0.port          693                       # Packet count per connected requestor and responder (Count)
system.membus.pktCount_system.generators03.port::system.mem_ctrl1.port          701                       # Packet count per connected requestor and responder (Count)
system.membus.pktCount_system.generators03.port::total         1394                       # Packet count per connected requestor and responder (Count)
system.membus.pktCount_system.generators04.port::system.mem_ctrl0.port          675                       # Packet count per connected requestor and responder (Count)
system.membus.pktCount_system.generators04.port::system.mem_ctrl1.port          721                       # Packet count per connected requestor and responder (Count)
system.membus.pktCount_system.generators04.port::total         1396                       # Packet count per connected requestor and responder (Count)
system.membus.pktCount_system.generators05.port::system.mem_ctrl0.port          701                       # Packet count per connected requestor and responder (Count)
system.membus.pktCount_system.generators05.port::system.mem_ctrl1.port          718                       # Packet count per connected requestor and responder (Count)
system.membus.pktCount_system.generators05.port::total         1419                       # Packet count per connected requestor and responder (Count)
system.membus.pktCount_system.generators06.port::system.mem_ctrl0.port          736                       # Packet count per connected requestor and responder (Count)
system.membus.pktCount_system.generators06.port::system.mem_ctrl1.port          737                       # Packet count per connected requestor and responder (Count)
system.membus.pktCount_system.generators06.port::total         1473                       # Packet count per connected requestor and responder (Count)
system.membus.pktCount_system.generators07.port::system.mem_ctrl0.port          752                       # Packet count per connected requestor and responder (Count)
system.membus.pktCount_system.generators07.port::system.mem_ctrl1.port          784                       # Packet count per connected requestor and responder (Count)
system.membus.pktCount_system.generators07.port::total         1536                       # Packet count per connected requestor and responder (Count)
system.membus.pktCount_system.generators08.port::system.mem_ctrl0.port          752                       # Packet count per connected requestor and responder (Count)
system.membus.pktCount_system.generators08.port::system.mem_ctrl1.port          719                       # Packet count per connected requestor and responder (Count)
system.membus.pktCount_system.generators08.port::total         1471                       # Packet count per connected requestor and responder (Count)
system.membus.pktCount_system.generators09.port::system.mem_ctrl0.port          771                       # Packet count per connected requestor and responder (Count)
system.membus.pktCount_system.generators09.port::system.mem_ctrl1.port          708                       # Packet count per connected requestor and responder (Count)
system.membus.pktCount_system.generators09.port::total         1479                       # Packet count per connected requestor and responder (Count)
system.membus.pktCount_system.generators10.port::system.mem_ctrl0.port          742                       # Packet count per connected requestor and responder (Count)
system.membus.pktCount_system.generators10.port::system.mem_ctrl1.port          719                       # Packet count per connected requestor and responder (Count)
system.membus.pktCount_system.generators10.port::total         1461                       # Packet count per connected requestor and responder (Count)
system.membus.pktCount_system.generators11.port::system.mem_ctrl0.port          667                       # Packet count per connected requestor and responder (Count)
system.membus.pktCount_system.generators11.port::system.mem_ctrl1.port          712                       # Packet count per connected requestor and responder (Count)
system.membus.pktCount_system.generators11.port::total         1379                       # Packet count per connected requestor and responder (Count)
system.membus.pktCount_system.generators12.port::system.mem_ctrl0.port          726                       # Packet count per connected requestor and responder (Count)
system.membus.pktCount_system.generators12.port::system.mem_ctrl1.port          720                       # Packet count per connected requestor and responder (Count)
system.membus.pktCount_system.generators12.port::total         1446                       # Packet count per connected requestor and responder (Count)
system.membus.pktCount_system.generators13.port::system.mem_ctrl0.port          734                       # Packet count per connected requestor and responder (Count)
system.membus.pktCount_system.generators13.port::system.mem_ctrl1.port          751                       # Packet count per connected requestor and responder (Count)
system.membus.pktCount_system.generators13.port::total         1485                       # Packet count per connected requestor and responder (Count)
system.membus.pktCount_system.generators14.port::system.mem_ctrl0.port          714                       # Packet count per connected requestor and responder (Count)
system.membus.pktCount_system.generators14.port::system.mem_ctrl1.port          736                       # Packet count per connected requestor and responder (Count)
system.membus.pktCount_system.generators14.port::total         1450                       # Packet count per connected requestor and responder (Count)
system.membus.pktCount_system.generators15.port::system.mem_ctrl0.port          674                       # Packet count per connected requestor and responder (Count)
system.membus.pktCount_system.generators15.port::system.mem_ctrl1.port          732                       # Packet count per connected requestor and responder (Count)
system.membus.pktCount_system.generators15.port::total         1406                       # Packet count per connected requestor and responder (Count)
system.membus.pktCount::total                   23314                       # Packet count per connected requestor and responder (Count)
system.membus.pktSize_system.generators00.port::system.mem_ctrl0.port        24256                       # Cumulative packet size per connected requestor and responder (Byte)
system.membus.pktSize_system.generators00.port::system.mem_ctrl1.port        22848                       # Cumulative packet size per connected requestor and responder (Byte)
system.membus.pktSize_system.generators00.port::total        47104                       # Cumulative packet size per connected requestor and responder (Byte)
system.membus.pktSize_system.generators01.port::system.mem_ctrl0.port        24320                       # Cumulative packet size per connected requestor and responder (Byte)
system.membus.pktSize_system.generators01.port::system.mem_ctrl1.port        21952                       # Cumulative packet size per connected requestor and responder (Byte)
system.membus.pktSize_system.generators01.port::total        46272                       # Cumulative packet size per connected requestor and responder (Byte)
system.membus.pktSize_system.generators02.port::system.mem_ctrl0.port        25792                       # Cumulative packet size per connected requestor and responder (Byte)
system.membus.pktSize_system.generators02.port::system.mem_ctrl1.port        22912                       # Cumulative packet size per connected requestor and responder (Byte)
system.membus.pktSize_system.generators02.port::total        48704                       # Cumulative packet size per connected requestor and responder (Byte)
system.membus.pktSize_system.generators03.port::system.mem_ctrl0.port        21824                       # Cumulative packet size per connected requestor and responder (Byte)
system.membus.pktSize_system.generators03.port::system.mem_ctrl1.port        21952                       # Cumulative packet size per connected requestor and responder (Byte)
system.membus.pktSize_system.generators03.port::total        43776                       # Cumulative packet size per connected requestor and responder (Byte)
system.membus.pktSize_system.generators04.port::system.mem_ctrl0.port        21248                       # Cumulative packet size per connected requestor and responder (Byte)
system.membus.pktSize_system.generators04.port::system.mem_ctrl1.port        22592                       # Cumulative packet size per connected requestor and responder (Byte)
system.membus.pktSize_system.generators04.port::total        43840                       # Cumulative packet size per connected requestor and responder (Byte)
system.membus.pktSize_system.generators05.port::system.mem_ctrl0.port        22336                       # Cumulative packet size per connected requestor and responder (Byte)
system.membus.pktSize_system.generators05.port::system.mem_ctrl1.port        22528                       # Cumulative packet size per connected requestor and responder (Byte)
system.membus.pktSize_system.generators05.port::total        44864                       # Cumulative packet size per connected requestor and responder (Byte)
system.membus.pktSize_system.generators06.port::system.mem_ctrl0.port        22976                       # Cumulative packet size per connected requestor and responder (Byte)
system.membus.pktSize_system.generators06.port::system.mem_ctrl1.port        23104                       # Cumulative packet size per connected requestor and responder (Byte)
system.membus.pktSize_system.generators06.port::total        46080                       # Cumulative packet size per connected requestor and responder (Byte)
system.membus.pktSize_system.generators07.port::system.mem_ctrl0.port        23488                       # Cumulative packet size per connected requestor and responder (Byte)
system.membus.pktSize_system.generators07.port::system.mem_ctrl1.port        24640                       # Cumulative packet size per connected requestor and responder (Byte)
system.membus.pktSize_system.generators07.port::total        48128                       # Cumulative packet size per connected requestor and responder (Byte)
system.membus.pktSize_system.generators08.port::system.mem_ctrl0.port        23872                       # Cumulative packet size per connected requestor and responder (Byte)
system.membus.pktSize_system.generators08.port::system.mem_ctrl1.port        22528                       # Cumulative packet size per connected requestor and responder (Byte)
system.membus.pktSize_system.generators08.port::total        46400                       # Cumulative packet size per connected requestor and responder (Byte)
system.membus.pktSize_system.generators09.port::system.mem_ctrl0.port        24320                       # Cumulative packet size per connected requestor and responder (Byte)
system.membus.pktSize_system.generators09.port::system.mem_ctrl1.port        22208                       # Cumulative packet size per connected requestor and responder (Byte)
system.membus.pktSize_system.generators09.port::total        46528                       # Cumulative packet size per connected requestor and responder (Byte)
system.membus.pktSize_system.generators10.port::system.mem_ctrl0.port        23488                       # Cumulative packet size per connected requestor and responder (Byte)
system.membus.pktSize_system.generators10.port::system.mem_ctrl1.port        22528                       # Cumulative packet size per connected requestor and responder (Byte)
system.membus.pktSize_system.generators10.port::total        46016                       # Cumulative packet size per connected requestor and responder (Byte)
system.membus.pktSize_system.generators11.port::system.mem_ctrl0.port        20672                       # Cumulative packet size per connected requestor and responder (Byte)
system.membus.pktSize_system.generators11.port::system.mem_ctrl1.port        22336                       # Cumulative packet size per connected requestor and responder (Byte)
system.membus.pktSize_system.generators11.port::total        43008                       # Cumulative packet size per connected requestor and responder (Byte)
system.membus.pktSize_system.generators12.port::system.mem_ctrl0.port        22912                       # Cumulative packet size per connected requestor and responder (Byte)
system.membus.pktSize_system.generators12.port::system.mem_ctrl1.port        22592                       # Cumulative packet size per connected requestor and responder (Byte)
system.membus.pktSize_system.generators12.port::total        45504                       # Cumulative packet size per connected requestor and responder (Byte)
system.membus.pktSize_system.generators13.port::system.mem_ctrl0.port        23168                       # Cumulative packet size per connected requestor and responder (Byte)
system.membus.pktSize_system.generators13.port::system.mem_ctrl1.port        23616                       # Cumulative packet size per connected requestor and responder (Byte)
system.membus.pktSize_system.generators13.port::total        46784                       # Cumulative packet size per connected requestor and responder (Byte)
system.membus.pktSize_system.generators14.port::system.mem_ctrl0.port        22592                       # Cumulative packet size per connected requestor and responder (Byte)
system.membus.pktSize_system.generators14.port::system.mem_ctrl1.port        23104                       # Cumulative packet size per connected requestor and responder (Byte)
system.membus.pktSize_system.generators14.port::total        45696                       # Cumulative packet size per connected requestor and responder (Byte)
system.membus.pktSize_system.generators15.port::system.mem_ctrl0.port        21376                       # Cumulative packet size per connected requestor and responder (Byte)
system.membus.pktSize_system.generators15.port::system.mem_ctrl1.port        22976                       # Cumulative packet size per connected requestor and responder (Byte)
system.membus.pktSize_system.generators15.port::total        44352                       # Cumulative packet size per connected requestor and responder (Byte)
system.membus.pktSize::total                   733056                       # Cumulative packet size per connected requestor and responder (Byte)
system.membus.power_state.pwrStateResidencyTicks::UNDEFINED    100056500                       # Cumulative time (in ticks) in various power states (Tick)
system.membus.reqLayer0.occupancy             2087642                       # Layer occupancy (ticks) (Tick)
system.membus.reqLayer0.utilization               0.0                       # Layer utilization (Ratio)
system.membus.reqLayer1.occupancy             2520907                       # Layer occupancy (ticks) (Tick)
system.membus.reqLayer1.utilization               0.0                       # Layer utilization (Ratio)
system.membus.respLayer0.occupancy             350068                       # Layer occupancy (ticks) (Tick)
system.membus.respLayer0.utilization              0.0                       # Layer utilization (Ratio)
system.membus.respLayer1.occupancy             343986                       # Layer occupancy (ticks) (Tick)
system.membus.respLayer1.utilization              0.0                       # Layer utilization (Ratio)
system.membus.respLayer10.occupancy            341881                       # Layer occupancy (ticks) (Tick)
system.membus.respLayer10.utilization             0.0                       # Layer utilization (Ratio)
system.membus.respLayer11.occupancy            321025                       # Layer occupancy (ticks) (Tick)
system.membus.respLayer11.utilization             0.0                       # Layer utilization (Ratio)
system.membus.respLayer12.occupancy            338864                       # Layer occupancy (ticks) (Tick)
system.membus.respLayer12.utilization             0.0                       # Layer utilization (Ratio)
system.membus.respLayer13.occupancy            348637                       # Layer occupancy (ticks) (Tick)
system.membus.respLayer13.utilization             0.0                       # Layer utilization (Ratio)
system.membus.respLayer14.occupancy            339889                       # Layer occupancy (ticks) (Tick)
system.membus.respLayer14.utilization             0.0                       # Layer utilization (Ratio)
system.membus.respLayer15.occupancy            329072                       # Layer occupancy (ticks) (Tick)
system.membus.respLayer15.utilization             0.0                       # Layer utilization (Ratio)
system.membus.respLayer2.occupancy             360086                       # Layer occupancy (ticks) (Tick)
system.membus.respLayer2.utilization              0.0                       # Layer utilization (Ratio)
system.membus.respLayer3.occupancy             327237                       # Layer occupancy (ticks) (Tick)
system.membus.respLayer3.utilization              0.0                       # Layer utilization (Ratio)
system.membus.respLayer4.occupancy             327568                       # Layer occupancy (ticks) (Tick)
system.membus.respLayer4.utilization              0.0                       # Layer utilization (Ratio)
system.membus.respLayer5.occupancy             333125                       # Layer occupancy (ticks) (Tick)
system.membus.respLayer5.utilization              0.0                       # Layer utilization (Ratio)
system.membus.respLayer6.occupancy             340840                       # Layer occupancy (ticks) (Tick)
system.membus.respLayer6.utilization              0.0                       # Layer utilization (Ratio)
system.membus.respLayer7.occupancy             359148                       # Layer occupancy (ticks) (Tick)
system.membus.respLayer7.utilization              0.0                       # Layer utilization (Ratio)
system.membus.respLayer8.occupancy             346181                       # Layer occupancy (ticks) (Tick)
system.membus.respLayer8.utilization              0.0                       # Layer utilization (Ratio)
system.membus.respLayer9.occupancy             345036                       # Layer occupancy (ticks) (Tick)
system.membus.respLayer9.utilization              0.0                       # Layer utilization (Ratio)
system.workload.inst.arm                            0                       # number of arm instructions executed (Count)
system.workload.inst.quiesce                        0                       # number of quiesce instructions executed (Count)

---------- End Simulation Statistics   ----------
