
---------- Begin Simulation Statistics ----------
simSeconds                                   0.000100                       # Number of seconds simulated (Second)
simTicks                                    100122500                       # Number of ticks simulated (Tick)
finalTick                                   100122500                       # Number of ticks from beginning of simulation (restored from checkpoints and never reset) (Tick)
simFreq                                  1000000000000                       # The number of ticks per simulated second ((Tick/Second))
hostSeconds                                      0.27                       # Real time elapsed on the host (Second)
hostTickRate                                364321525                       # The number of ticks simulated per host second (ticks/s) ((Tick/Second))
hostMemory                                    8500640                       # Number of bytes of host memory used (Byte)
system.clk_domain.clock                           200                       # Clock period in ticks (Tick)
system.clk_domain.voltage_domain.voltage            1                       # Voltage in Volts (Volt)
system.far_mem_ctrl0.avgPriority_writebacks::samples      3357.00                       # Average QoS priority value for accepted requests (Count)
system.far_mem_ctrl0.priorityMinLatency  0.000000317492                       # per QoS priority minimum request to response latency (Second)
system.far_mem_ctrl0.priorityMaxLatency  0.000063165530                       # per QoS priority maximum request to response latency (Second)
system.far_mem_ctrl0.numReadWriteTurnArounds           19                       # Number of turnarounds from READ to WRITE (Count)
system.far_mem_ctrl0.numWriteReadTurnArounds           19                       # Number of turnarounds from WRITE to READ (Count)
system.far_mem_ctrl0.numStayReadState            9412                       # Number of times bus staying in READ state (Count)
system.far_mem_ctrl0.numStayWriteState            357                       # Number of times bus staying in WRITE state (Count)
system.far_mem_ctrl0.readReqs                    2882                       # Number of read requests accepted (Count)
system.far_mem_ctrl0.writeReqs                    475                       # Number of write requests accepted (Count)
system.far_mem_ctrl0.readBursts                  2882                       # Number of controller read bursts, including those serviced by the write queue (Count)
system.far_mem_ctrl0.writeBursts                  475                       # Number of controller write bursts, including those merged in the write queue (Count)
system.far_mem_ctrl0.servicedByWrQ                  0                       # Number of controller read bursts serviced by the write queue (Count)
system.far_mem_ctrl0.mergedWrBursts                 0                       # Number of controller write bursts merged with an existing one (Count)
system.far_mem_ctrl0.neitherReadNorWriteReqs            0                       # Number of requests that are neither read nor write (Count)
system.far_mem_ctrl0.avgRdQLen                  10.59                       # Average read queue length when enqueuing ((Count/Tick))
system.far_mem_ctrl0.avgWrQLen                  54.57                       # Average write queue length when enqueuing ((Count/Tick))
system.far_mem_ctrl0.numRdRetry                     0                       # Number of times read queue was full causing retry (Count)
system.far_mem_ctrl0.numWrRetry                     0                       # Number of times write queue was full causing retry (Count)
system.far_mem_ctrl0.readPktSize::0                 0                       # Read request sizes (log2) (Count)
system.far_mem_ctrl0.readPktSize::1                 0                       # Read request sizes (log2) (Count)
system.far_mem_ctrl0.readPktSize::2                 0                       # Read request sizes (log2) (Count)
system.far_mem_ctrl0.readPktSize::3                 0                       # Read request sizes (log2) (Count)
system.far_mem_ctrl0.readPktSize::4                 0                       # Read request sizes (log2) (Count)
system.far_mem_ctrl0.readPktSize::5                 0                       # Read request sizes (log2) (Count)
system.far_mem_ctrl0.readPktSize::6              2882                       # Read request sizes (log2) (Count)
system.far_mem_ctrl0.writePktSize::0                0                       # Write request sizes (log2) (Count)
system.far_mem_ctrl0.writePktSize::1                0                       # Write request sizes (log2) (Count)
system.far_mem_ctrl0.writePktSize::2                0                       # Write request sizes (log2) (Count)
system.far_mem_ctrl0.writePktSize::3                0                       # Write request sizes (log2) (Count)
system.far_mem_ctrl0.writePktSize::4                0                       # Write request sizes (log2) (Count)
system.far_mem_ctrl0.writePktSize::5                0                       # Write request sizes (log2) (Count)
system.far_mem_ctrl0.writePktSize::6              475                       # Write request sizes (log2) (Count)
system.far_mem_ctrl0.rdQLenPdf::0                  34                       # What read queue length does an incoming req see (Count)
system.far_mem_ctrl0.rdQLenPdf::1                 102                       # What read queue length does an incoming req see (Count)
system.far_mem_ctrl0.rdQLenPdf::2                 175                       # What read queue length does an incoming req see (Count)
system.far_mem_ctrl0.rdQLenPdf::3                 239                       # What read queue length does an incoming req see (Count)
system.far_mem_ctrl0.rdQLenPdf::4                 267                       # What read queue length does an incoming req see (Count)
system.far_mem_ctrl0.rdQLenPdf::5                 274                       # What read queue length does an incoming req see (Count)
system.far_mem_ctrl0.rdQLenPdf::6                 268                       # What read queue length does an incoming req see (Count)
system.far_mem_ctrl0.rdQLenPdf::7                 247                       # What read queue length does an incoming req see (Count)
system.far_mem_ctrl0.rdQLenPdf::8                 248                       # What read queue length does an incoming req see (Count)
system.far_mem_ctrl0.rdQLenPdf::9                 190                       # What read queue length does an incoming req see (Count)
system.far_mem_ctrl0.rdQLenPdf::10                163                       # What read queue length does an incoming req see (Count)
system.far_mem_ctrl0.rdQLenPdf::11                121                       # What read queue length does an incoming req see (Count)
system.far_mem_ctrl0.rdQLenPdf::12                100                       # What read queue length does an incoming req see (Count)
system.far_mem_ctrl0.rdQLenPdf::13                 87                       # What read queue length does an incoming req see (Count)
system.far_mem_ctrl0.rdQLenPdf::14                 66                       # What read queue length does an incoming req see (Count)
system.far_mem_ctrl0.rdQLenPdf::15                 56                       # What read queue length does an incoming req see (Count)
system.far_mem_ctrl0.rdQLenPdf::16                 32                       # What read queue length does an incoming req see (Count)
system.far_mem_ctrl0.rdQLenPdf::17                 25                       # What read queue length does an incoming req see (Count)
system.far_mem_ctrl0.rdQLenPdf::18                 18                       # What read queue length does an incoming req see (Count)
system.far_mem_ctrl0.rdQLenPdf::19                 14                       # What read queue length does an incoming req see (Count)
system.far_mem_ctrl0.rdQLenPdf::20                  8                       # What read queue length does an incoming req see (Count)
system.far_mem_ctrl0.rdQLenPdf::21                 12                       # What read queue length does an incoming req see (Count)
system.far_mem_ctrl0.rdQLenPdf::22                  9                       # What read queue length does an incoming req see (Count)
system.far_mem_ctrl0.rdQLenPdf::23                  7                       # What read queue length does an incoming req see (Count)
system.far_mem_ctrl0.rdQLenPdf::24                  4                       # What read queue length does an incoming req see (Count)
system.far_mem_ctrl0.rdQLenPdf::25                  5                       # What read queue length does an incoming req see (Count)
system.far_mem_ctrl0.rdQLenPdf::26                  7                       # What read queue length does an incoming req see (Count)
system.far_mem_ctrl0.rdQLenPdf::27                  7                       # What read queue length does an incoming req see (Count)
system.far_mem_ctrl0.rdQLenPdf::28                  8                       # What read queue length does an incoming req see (Count)
system.far_mem_ctrl0.rdQLenPdf::29                  7                       # What read queue length does an incoming req see (Count)
system.far_mem_ctrl0.rdQLenPdf::30                  8                       # What read queue length does an incoming req see (Count)
system.far_mem_ctrl0.rdQLenPdf::31                  6                       # What read queue length does an incoming req see (Count)
system.far_mem_ctrl0.rdQLenPdf::32                  6                       # What read queue length does an incoming req see (Count)
system.far_mem_ctrl0.rdQLenPdf::33                  7                       # What read queue length does an incoming req see (Count)
system.far_mem_ctrl0.rdQLenPdf::34                  3                       # What read queue length does an incoming req see (Count)
system.far_mem_ctrl0.rdQLenPdf::35                  3                       # What read queue length does an incoming req see (Count)
system.far_mem_ctrl0.rdQLenPdf::36                  3                       # What read queue length does an incoming req see (Count)
system.far_mem_ctrl0.rdQLenPdf::37                  4                       # What read queue length does an incoming req see (Count)
system.far_mem_ctrl0.rdQLenPdf::38                  8                       # What read queue length does an incoming req see (Count)
system.far_mem_ctrl0.rdQLenPdf::39                  8                       # What read queue length does an incoming req see (Count)
system.far_mem_ctrl0.rdQLenPdf::40                  8                       # What read queue length does an incoming req see (Count)
system.far_mem_ctrl0.rdQLenPdf::41                  4                       # What read queue length does an incoming req see (Count)
system.far_mem_ctrl0.rdQLenPdf::42                  5                       # What read queue length does an incoming req see (Count)
system.far_mem_ctrl0.rdQLenPdf::43                  4                       # What read queue length does an incoming req see (Count)
system.far_mem_ctrl0.rdQLenPdf::44                  3                       # What read queue length does an incoming req see (Count)
system.far_mem_ctrl0.rdQLenPdf::45                  1                       # What read queue length does an incoming req see (Count)
system.far_mem_ctrl0.rdQLenPdf::46                  1                       # What read queue length does an incoming req see (Count)
system.far_mem_ctrl0.rdQLenPdf::47                  0                       # What read queue length does an incoming req see (Count)
system.far_mem_ctrl0.rdQLenPdf::48                  0                       # What read queue length does an incoming req see (Count)
system.far_mem_ctrl0.rdQLenPdf::49                  0                       # What read queue length does an incoming req see (Count)
system.far_mem_ctrl0.rdQLenPdf::50                  0                       # What read queue length does an incoming req see (Count)
system.far_mem_ctrl0.rdQLenPdf::51                  0                       # What read queue length does an incoming req see (Count)
system.far_mem_ctrl0.rdQLenPdf::52                  0                       # What read queue length does an incoming req see (Count)
system.far_mem_ctrl0.rdQLenPdf::53                  0                       # What read queue length does an incoming req see (Count)
system.far_mem_ctrl0.rdQLenPdf::54                  0                       # What read queue length does an incoming req see (Count)
system.far_mem_ctrl0.rdQLenPdf::55                  0                       # What read queue length does an incoming req see (Count)
system.far_mem_ctrl0.rdQLenPdf::56                  0                       # What read queue length does an incoming req see (Count)
system.far_mem_ctrl0.rdQLenPdf::57                  0                       # What read queue length does an incoming req see (Count)
system.far_mem_ctrl0.rdQLenPdf::58                  0                       # What read queue length does an incoming req see (Count)
system.far_mem_ctrl0.rdQLenPdf::59                  0                       # What read queue length does an incoming req see (Count)
system.far_mem_ctrl0.rdQLenPdf::60                  0                       # What read queue length does an incoming req see (Count)
system.far_mem_ctrl0.rdQLenPdf::61                  0                       # What read queue length does an incoming req see (Count)
system.far_mem_ctrl0.rdQLenPdf::62                  0                       # What read queue length does an incoming req see (Count)
system.far_mem_ctrl0.rdQLenPdf::63                  0                       # What read queue length does an incoming req see (Count)
system.far_mem_ctrl0.rdQLenPdf::64                  0                       # What read queue length does an incoming req see (Count)
system.far_mem_ctrl0.rdQLenPdf::65                  0                       # What read queue length does an incoming req see (Count)
system.far_mem_ctrl0.rdQLenPdf::66                  0                       # What read queue length does an incoming req see (Count)
system.far_mem_ctrl0.rdQLenPdf::67                  0                       # What read queue length does an incoming req see (Count)
system.far_mem_ctrl0.rdQLenPdf::68                  0                       # What read queue length does an incoming req see (Count)
system.far_mem_ctrl0.rdQLenPdf::69                  0                       # What read queue length does an incoming req see (Count)
system.far_mem_ctrl0.rdQLenPdf::70                  0                       # What read queue length does an incoming req see (Count)
system.far_mem_ctrl0.rdQLenPdf::71                  0                       # What read queue length does an incoming req see (Count)
system.far_mem_ctrl0.rdQLenPdf::72                  0                       # What read queue length does an incoming req see (Count)
system.far_mem_ctrl0.rdQLenPdf::73                  0                       # What read queue length does an incoming req see (Count)
system.far_mem_ctrl0.rdQLenPdf::74                  0                       # What read queue length does an incoming req see (Count)
system.far_mem_ctrl0.rdQLenPdf::75                  0                       # What read queue length does an incoming req see (Count)
system.far_mem_ctrl0.rdQLenPdf::76                  0                       # What read queue length does an incoming req see (Count)
system.far_mem_ctrl0.rdQLenPdf::77                  0                       # What read queue length does an incoming req see (Count)
system.far_mem_ctrl0.rdQLenPdf::78                  0                       # What read queue length does an incoming req see (Count)
system.far_mem_ctrl0.rdQLenPdf::79                  0                       # What read queue length does an incoming req see (Count)
system.far_mem_ctrl0.rdQLenPdf::80                  0                       # What read queue length does an incoming req see (Count)
system.far_mem_ctrl0.rdQLenPdf::81                  0                       # What read queue length does an incoming req see (Count)
system.far_mem_ctrl0.rdQLenPdf::82                  0                       # What read queue length does an incoming req see (Count)
system.far_mem_ctrl0.rdQLenPdf::83                  0                       # What read queue length does an incoming req see (Count)
system.far_mem_ctrl0.rdQLenPdf::84                  0                       # What read queue length does an incoming req see (Count)
system.far_mem_ctrl0.rdQLenPdf::85                  0                       # What read queue length does an incoming req see (Count)
system.far_mem_ctrl0.rdQLenPdf::86                  0                       # What read queue length does an incoming req see (Count)
system.far_mem_ctrl0.rdQLenPdf::87                  0                       # What read queue length does an incoming req see (Count)
system.far_mem_ctrl0.rdQLenPdf::88                  0                       # What read queue length does an incoming req see (Count)
system.far_mem_ctrl0.rdQLenPdf::89                  0                       # What read queue length does an incoming req see (Count)
system.far_mem_ctrl0.rdQLenPdf::90                  0                       # What read queue length does an incoming req see (Count)
system.far_mem_ctrl0.rdQLenPdf::91                  0                       # What read queue length does an incoming req see (Count)
system.far_mem_ctrl0.rdQLenPdf::92                  0                       # What read queue length does an incoming req see (Count)
system.far_mem_ctrl0.rdQLenPdf::93                  0                       # What read queue length does an incoming req see (Count)
system.far_mem_ctrl0.rdQLenPdf::94                  0                       # What read queue length does an incoming req see (Count)
system.far_mem_ctrl0.rdQLenPdf::95                  0                       # What read queue length does an incoming req see (Count)
system.far_mem_ctrl0.rdQLenPdf::96                  0                       # What read queue length does an incoming req see (Count)
system.far_mem_ctrl0.rdQLenPdf::97                  0                       # What read queue length does an incoming req see (Count)
system.far_mem_ctrl0.rdQLenPdf::98                  0                       # What read queue length does an incoming req see (Count)
system.far_mem_ctrl0.rdQLenPdf::99                  0                       # What read queue length does an incoming req see (Count)
system.far_mem_ctrl0.rdQLenPdf::100                 0                       # What read queue length does an incoming req see (Count)
system.far_mem_ctrl0.rdQLenPdf::101                 0                       # What read queue length does an incoming req see (Count)
system.far_mem_ctrl0.rdQLenPdf::102                 0                       # What read queue length does an incoming req see (Count)
system.far_mem_ctrl0.rdQLenPdf::103                 0                       # What read queue length does an incoming req see (Count)
system.far_mem_ctrl0.rdQLenPdf::104                 0                       # What read queue length does an incoming req see (Count)
system.far_mem_ctrl0.rdQLenPdf::105                 0                       # What read queue length does an incoming req see (Count)
system.far_mem_ctrl0.rdQLenPdf::106                 0                       # What read queue length does an incoming req see (Count)
system.far_mem_ctrl0.rdQLenPdf::107                 0                       # What read queue length does an incoming req see (Count)
system.far_mem_ctrl0.rdQLenPdf::108                 0                       # What read queue length does an incoming req see (Count)
system.far_mem_ctrl0.rdQLenPdf::109                 0                       # What read queue length does an incoming req see (Count)
system.far_mem_ctrl0.rdQLenPdf::110                 0                       # What read queue length does an incoming req see (Count)
system.far_mem_ctrl0.rdQLenPdf::111                 0                       # What read queue length does an incoming req see (Count)
system.far_mem_ctrl0.rdQLenPdf::112                 0                       # What read queue length does an incoming req see (Count)
system.far_mem_ctrl0.rdQLenPdf::113                 0                       # What read queue length does an incoming req see (Count)
system.far_mem_ctrl0.rdQLenPdf::114                 0                       # What read queue length does an incoming req see (Count)
system.far_mem_ctrl0.rdQLenPdf::115                 0                       # What read queue length does an incoming req see (Count)
system.far_mem_ctrl0.rdQLenPdf::116                 0                       # What read queue length does an incoming req see (Count)
system.far_mem_ctrl0.rdQLenPdf::117                 0                       # What read queue length does an incoming req see (Count)
system.far_mem_ctrl0.rdQLenPdf::118                 0                       # What read queue length does an incoming req see (Count)
system.far_mem_ctrl0.rdQLenPdf::119                 0                       # What read queue length does an incoming req see (Count)
system.far_mem_ctrl0.rdQLenPdf::120                 0                       # What read queue length does an incoming req see (Count)
system.far_mem_ctrl0.rdQLenPdf::121                 0                       # What read queue length does an incoming req see (Count)
system.far_mem_ctrl0.rdQLenPdf::122                 0                       # What read queue length does an incoming req see (Count)
system.far_mem_ctrl0.rdQLenPdf::123                 0                       # What read queue length does an incoming req see (Count)
system.far_mem_ctrl0.rdQLenPdf::124                 0                       # What read queue length does an incoming req see (Count)
system.far_mem_ctrl0.rdQLenPdf::125                 0                       # What read queue length does an incoming req see (Count)
system.far_mem_ctrl0.rdQLenPdf::126                 0                       # What read queue length does an incoming req see (Count)
system.far_mem_ctrl0.rdQLenPdf::127                 0                       # What read queue length does an incoming req see (Count)
system.far_mem_ctrl0.wrQLenPdf::0                   1                       # What write queue length does an incoming req see (Count)
system.far_mem_ctrl0.wrQLenPdf::1                   1                       # What write queue length does an incoming req see (Count)
system.far_mem_ctrl0.wrQLenPdf::2                   1                       # What write queue length does an incoming req see (Count)
system.far_mem_ctrl0.wrQLenPdf::3                   1                       # What write queue length does an incoming req see (Count)
system.far_mem_ctrl0.wrQLenPdf::4                   1                       # What write queue length does an incoming req see (Count)
system.far_mem_ctrl0.wrQLenPdf::5                   1                       # What write queue length does an incoming req see (Count)
system.far_mem_ctrl0.wrQLenPdf::6                   1                       # What write queue length does an incoming req see (Count)
system.far_mem_ctrl0.wrQLenPdf::7                   1                       # What write queue length does an incoming req see (Count)
system.far_mem_ctrl0.wrQLenPdf::8                   1                       # What write queue length does an incoming req see (Count)
system.far_mem_ctrl0.wrQLenPdf::9                   1                       # What write queue length does an incoming req see (Count)
system.far_mem_ctrl0.wrQLenPdf::10                  1                       # What write queue length does an incoming req see (Count)
system.far_mem_ctrl0.wrQLenPdf::11                  1                       # What write queue length does an incoming req see (Count)
system.far_mem_ctrl0.wrQLenPdf::12                  1                       # What write queue length does an incoming req see (Count)
system.far_mem_ctrl0.wrQLenPdf::13                  1                       # What write queue length does an incoming req see (Count)
system.far_mem_ctrl0.wrQLenPdf::14                  1                       # What write queue length does an incoming req see (Count)
system.far_mem_ctrl0.wrQLenPdf::15                  1                       # What write queue length does an incoming req see (Count)
system.far_mem_ctrl0.wrQLenPdf::16                  1                       # What write queue length does an incoming req see (Count)
system.far_mem_ctrl0.wrQLenPdf::17                  1                       # What write queue length does an incoming req see (Count)
system.far_mem_ctrl0.wrQLenPdf::18                  1                       # What write queue length does an incoming req see (Count)
system.far_mem_ctrl0.wrQLenPdf::19                  1                       # What write queue length does an incoming req see (Count)
system.far_mem_ctrl0.wrQLenPdf::20                  1                       # What write queue length does an incoming req see (Count)
system.far_mem_ctrl0.wrQLenPdf::21                  1                       # What write queue length does an incoming req see (Count)
system.far_mem_ctrl0.wrQLenPdf::22                  1                       # What write queue length does an incoming req see (Count)
system.far_mem_ctrl0.wrQLenPdf::23                  1                       # What write queue length does an incoming req see (Count)
system.far_mem_ctrl0.wrQLenPdf::24                  1                       # What write queue length does an incoming req see (Count)
system.far_mem_ctrl0.wrQLenPdf::25                  1                       # What write queue length does an incoming req see (Count)
system.far_mem_ctrl0.wrQLenPdf::26                  1                       # What write queue length does an incoming req see (Count)
system.far_mem_ctrl0.wrQLenPdf::27                  1                       # What write queue length does an incoming req see (Count)
system.far_mem_ctrl0.wrQLenPdf::28                  1                       # What write queue length does an incoming req see (Count)
system.far_mem_ctrl0.wrQLenPdf::29                  1                       # What write queue length does an incoming req see (Count)
system.far_mem_ctrl0.wrQLenPdf::30                  1                       # What write queue length does an incoming req see (Count)
system.far_mem_ctrl0.wrQLenPdf::31                  1                       # What write queue length does an incoming req see (Count)
system.far_mem_ctrl0.wrQLenPdf::32                  1                       # What write queue length does an incoming req see (Count)
system.far_mem_ctrl0.wrQLenPdf::33                  1                       # What write queue length does an incoming req see (Count)
system.far_mem_ctrl0.wrQLenPdf::34                  1                       # What write queue length does an incoming req see (Count)
system.far_mem_ctrl0.wrQLenPdf::35                  1                       # What write queue length does an incoming req see (Count)
system.far_mem_ctrl0.wrQLenPdf::36                  1                       # What write queue length does an incoming req see (Count)
system.far_mem_ctrl0.wrQLenPdf::37                  1                       # What write queue length does an incoming req see (Count)
system.far_mem_ctrl0.wrQLenPdf::38                  1                       # What write queue length does an incoming req see (Count)
system.far_mem_ctrl0.wrQLenPdf::39                  1                       # What write queue length does an incoming req see (Count)
system.far_mem_ctrl0.wrQLenPdf::40                  1                       # What write queue length does an incoming req see (Count)
system.far_mem_ctrl0.wrQLenPdf::41                  1                       # What write queue length does an incoming req see (Count)
system.far_mem_ctrl0.wrQLenPdf::42                  1                       # What write queue length does an incoming req see (Count)
system.far_mem_ctrl0.wrQLenPdf::43                  1                       # What write queue length does an incoming req see (Count)
system.far_mem_ctrl0.wrQLenPdf::44                  1                       # What write queue length does an incoming req see (Count)
system.far_mem_ctrl0.wrQLenPdf::45                  1                       # What write queue length does an incoming req see (Count)
system.far_mem_ctrl0.wrQLenPdf::46                  1                       # What write queue length does an incoming req see (Count)
system.far_mem_ctrl0.wrQLenPdf::47                  3                       # What write queue length does an incoming req see (Count)
system.far_mem_ctrl0.wrQLenPdf::48                  3                       # What write queue length does an incoming req see (Count)
system.far_mem_ctrl0.wrQLenPdf::49                  4                       # What write queue length does an incoming req see (Count)
system.far_mem_ctrl0.wrQLenPdf::50                  7                       # What write queue length does an incoming req see (Count)
system.far_mem_ctrl0.wrQLenPdf::51                  8                       # What write queue length does an incoming req see (Count)
system.far_mem_ctrl0.wrQLenPdf::52                  8                       # What write queue length does an incoming req see (Count)
system.far_mem_ctrl0.wrQLenPdf::53                  8                       # What write queue length does an incoming req see (Count)
system.far_mem_ctrl0.wrQLenPdf::54                  9                       # What write queue length does an incoming req see (Count)
system.far_mem_ctrl0.wrQLenPdf::55                  9                       # What write queue length does an incoming req see (Count)
system.far_mem_ctrl0.wrQLenPdf::56                 10                       # What write queue length does an incoming req see (Count)
system.far_mem_ctrl0.wrQLenPdf::57                 11                       # What write queue length does an incoming req see (Count)
system.far_mem_ctrl0.wrQLenPdf::58                 11                       # What write queue length does an incoming req see (Count)
system.far_mem_ctrl0.wrQLenPdf::59                 11                       # What write queue length does an incoming req see (Count)
system.far_mem_ctrl0.wrQLenPdf::60                 11                       # What write queue length does an incoming req see (Count)
system.far_mem_ctrl0.wrQLenPdf::61                 11                       # What write queue length does an incoming req see (Count)
system.far_mem_ctrl0.wrQLenPdf::62                 11                       # What write queue length does an incoming req see (Count)
system.far_mem_ctrl0.wrQLenPdf::63                 13                       # What write queue length does an incoming req see (Count)
system.far_mem_ctrl0.wrQLenPdf::64                 14                       # What write queue length does an incoming req see (Count)
system.far_mem_ctrl0.wrQLenPdf::65                 14                       # What write queue length does an incoming req see (Count)
system.far_mem_ctrl0.wrQLenPdf::66                 12                       # What write queue length does an incoming req see (Count)
system.far_mem_ctrl0.wrQLenPdf::67                 10                       # What write queue length does an incoming req see (Count)
system.far_mem_ctrl0.wrQLenPdf::68                 10                       # What write queue length does an incoming req see (Count)
system.far_mem_ctrl0.wrQLenPdf::69                 10                       # What write queue length does an incoming req see (Count)
system.far_mem_ctrl0.wrQLenPdf::70                  9                       # What write queue length does an incoming req see (Count)
system.far_mem_ctrl0.wrQLenPdf::71                  9                       # What write queue length does an incoming req see (Count)
system.far_mem_ctrl0.wrQLenPdf::72                  8                       # What write queue length does an incoming req see (Count)
system.far_mem_ctrl0.wrQLenPdf::73                  7                       # What write queue length does an incoming req see (Count)
system.far_mem_ctrl0.wrQLenPdf::74                  7                       # What write queue length does an incoming req see (Count)
system.far_mem_ctrl0.wrQLenPdf::75                  6                       # What write queue length does an incoming req see (Count)
system.far_mem_ctrl0.wrQLenPdf::76                  6                       # What write queue length does an incoming req see (Count)
system.far_mem_ctrl0.wrQLenPdf::77                  6                       # What write queue length does an incoming req see (Count)
system.far_mem_ctrl0.wrQLenPdf::78                  7                       # What write queue length does an incoming req see (Count)
system.far_mem_ctrl0.wrQLenPdf::79                  5                       # What write queue length does an incoming req see (Count)
system.far_mem_ctrl0.wrQLenPdf::80                  5                       # What write queue length does an incoming req see (Count)
system.far_mem_ctrl0.wrQLenPdf::81                  5                       # What write queue length does an incoming req see (Count)
system.far_mem_ctrl0.wrQLenPdf::82                  5                       # What write queue length does an incoming req see (Count)
system.far_mem_ctrl0.wrQLenPdf::83                  5                       # What write queue length does an incoming req see (Count)
system.far_mem_ctrl0.wrQLenPdf::84                  5                       # What write queue length does an incoming req see (Count)
system.far_mem_ctrl0.wrQLenPdf::85                  6                       # What write queue length does an incoming req see (Count)
system.far_mem_ctrl0.wrQLenPdf::86                  5                       # What write queue length does an incoming req see (Count)
system.far_mem_ctrl0.wrQLenPdf::87                  5                       # What write queue length does an incoming req see (Count)
system.far_mem_ctrl0.wrQLenPdf::88                  5                       # What write queue length does an incoming req see (Count)
system.far_mem_ctrl0.wrQLenPdf::89                  6                       # What write queue length does an incoming req see (Count)
system.far_mem_ctrl0.wrQLenPdf::90                  5                       # What write queue length does an incoming req see (Count)
system.far_mem_ctrl0.wrQLenPdf::91                  5                       # What write queue length does an incoming req see (Count)
system.far_mem_ctrl0.wrQLenPdf::92                  6                       # What write queue length does an incoming req see (Count)
system.far_mem_ctrl0.wrQLenPdf::93                  5                       # What write queue length does an incoming req see (Count)
system.far_mem_ctrl0.wrQLenPdf::94                  5                       # What write queue length does an incoming req see (Count)
system.far_mem_ctrl0.wrQLenPdf::95                  5                       # What write queue length does an incoming req see (Count)
system.far_mem_ctrl0.wrQLenPdf::96                  7                       # What write queue length does an incoming req see (Count)
system.far_mem_ctrl0.wrQLenPdf::97                  6                       # What write queue length does an incoming req see (Count)
system.far_mem_ctrl0.wrQLenPdf::98                  6                       # What write queue length does an incoming req see (Count)
system.far_mem_ctrl0.wrQLenPdf::99                  5                       # What write queue length does an incoming req see (Count)
system.far_mem_ctrl0.wrQLenPdf::100                 5                       # What write queue length does an incoming req see (Count)
system.far_mem_ctrl0.wrQLenPdf::101                 4                       # What write queue length does an incoming req see (Count)
system.far_mem_ctrl0.wrQLenPdf::102                 3                       # What write queue length does an incoming req see (Count)
system.far_mem_ctrl0.wrQLenPdf::103                 3                       # What write queue length does an incoming req see (Count)
system.far_mem_ctrl0.wrQLenPdf::104                 4                       # What write queue length does an incoming req see (Count)
system.far_mem_ctrl0.wrQLenPdf::105                 3                       # What write queue length does an incoming req see (Count)
system.far_mem_ctrl0.wrQLenPdf::106                 3                       # What write queue length does an incoming req see (Count)
system.far_mem_ctrl0.wrQLenPdf::107                 3                       # What write queue length does an incoming req see (Count)
system.far_mem_ctrl0.wrQLenPdf::108                 2                       # What write queue length does an incoming req see (Count)
system.far_mem_ctrl0.wrQLenPdf::109                 2                       # What write queue length does an incoming req see (Count)
system.far_mem_ctrl0.wrQLenPdf::110                 1                       # What write queue length does an incoming req see (Count)
system.far_mem_ctrl0.wrQLenPdf::111                 0                       # What write queue length does an incoming req see (Count)
system.far_mem_ctrl0.wrQLenPdf::112                 0                       # What write queue length does an incoming req see (Count)
system.far_mem_ctrl0.wrQLenPdf::113                 0                       # What write queue length does an incoming req see (Count)
system.far_mem_ctrl0.wrQLenPdf::114                 0                       # What write queue length does an incoming req see (Count)
system.far_mem_ctrl0.wrQLenPdf::115                 0                       # What write queue length does an incoming req see (Count)
system.far_mem_ctrl0.wrQLenPdf::116                 0                       # What write queue length does an incoming req see (Count)
system.far_mem_ctrl0.wrQLenPdf::117                 0                       # What write queue length does an incoming req see (Count)
system.far_mem_ctrl0.wrQLenPdf::118                 0                       # What write queue length does an incoming req see (Count)
system.far_mem_ctrl0.wrQLenPdf::119                 0                       # What write queue length does an incoming req see (Count)
system.far_mem_ctrl0.wrQLenPdf::120                 0                       # What write queue length does an incoming req see (Count)
system.far_mem_ctrl0.wrQLenPdf::121                 0                       # What write queue length does an incoming req see (Count)
system.far_mem_ctrl0.wrQLenPdf::122                 0                       # What write queue length does an incoming req see (Count)
system.far_mem_ctrl0.wrQLenPdf::123                 0                       # What write queue length does an incoming req see (Count)
system.far_mem_ctrl0.wrQLenPdf::124                 0                       # What write queue length does an incoming req see (Count)
system.far_mem_ctrl0.wrQLenPdf::125                 0                       # What write queue length does an incoming req see (Count)
system.far_mem_ctrl0.wrQLenPdf::126                 0                       # What write queue length does an incoming req see (Count)
system.far_mem_ctrl0.wrQLenPdf::127                 0                       # What write queue length does an incoming req see (Count)
system.far_mem_ctrl0.rdPerTurnAround::samples           19                       # Reads before turning the bus around for writes (Count)
system.far_mem_ctrl0.rdPerTurnAround::mean          151                       # Reads before turning the bus around for writes (Count)
system.far_mem_ctrl0.rdPerTurnAround::gmean    98.462230                       # Reads before turning the bus around for writes (Count)
system.far_mem_ctrl0.rdPerTurnAround::stdev   230.894396                       # Reads before turning the bus around for writes (Count)
system.far_mem_ctrl0.rdPerTurnAround::0-15            1      5.26%      5.26% # Reads before turning the bus around for writes (Count)
system.far_mem_ctrl0.rdPerTurnAround::64-79            4     21.05%     26.32% # Reads before turning the bus around for writes (Count)
system.far_mem_ctrl0.rdPerTurnAround::80-95            6     31.58%     57.89% # Reads before turning the bus around for writes (Count)
system.far_mem_ctrl0.rdPerTurnAround::96-111            1      5.26%     63.16% # Reads before turning the bus around for writes (Count)
system.far_mem_ctrl0.rdPerTurnAround::112-127            2     10.53%     73.68% # Reads before turning the bus around for writes (Count)
system.far_mem_ctrl0.rdPerTurnAround::128-143            2     10.53%     84.21% # Reads before turning the bus around for writes (Count)
system.far_mem_ctrl0.rdPerTurnAround::144-159            1      5.26%     89.47% # Reads before turning the bus around for writes (Count)
system.far_mem_ctrl0.rdPerTurnAround::176-191            1      5.26%     94.74% # Reads before turning the bus around for writes (Count)
system.far_mem_ctrl0.rdPerTurnAround::1088-1103            1      5.26%    100.00% # Reads before turning the bus around for writes (Count)
system.far_mem_ctrl0.rdPerTurnAround::total           19                       # Reads before turning the bus around for writes (Count)
system.far_mem_ctrl0.wrPerTurnAround::samples           19                       # Writes before turning the bus around for reads (Count)
system.far_mem_ctrl0.wrPerTurnAround::mean    19.789474                       # Writes before turning the bus around for reads (Count)
system.far_mem_ctrl0.wrPerTurnAround::gmean    18.614446                       # Writes before turning the bus around for reads (Count)
system.far_mem_ctrl0.wrPerTurnAround::stdev     8.734217                       # Writes before turning the bus around for reads (Count)
system.far_mem_ctrl0.wrPerTurnAround::16           14     73.68%     73.68% # Writes before turning the bus around for reads (Count)
system.far_mem_ctrl0.wrPerTurnAround::17            1      5.26%     78.95% # Writes before turning the bus around for reads (Count)
system.far_mem_ctrl0.wrPerTurnAround::22            1      5.26%     84.21% # Writes before turning the bus around for reads (Count)
system.far_mem_ctrl0.wrPerTurnAround::28            1      5.26%     89.47% # Writes before turning the bus around for reads (Count)
system.far_mem_ctrl0.wrPerTurnAround::37            1      5.26%     94.74% # Writes before turning the bus around for reads (Count)
system.far_mem_ctrl0.wrPerTurnAround::48            1      5.26%    100.00% # Writes before turning the bus around for reads (Count)
system.far_mem_ctrl0.wrPerTurnAround::total           19                       # Writes before turning the bus around for reads (Count)
system.far_mem_ctrl0.bytesReadWrQ                   0                       # Total number of bytes read from write queue (Byte)
system.far_mem_ctrl0.bytesReadSys              184448                       # Total read bytes from the system interface side (Byte)
system.far_mem_ctrl0.bytesWrittenSys            30400                       # Total written bytes from the system interface side (Byte)
system.far_mem_ctrl0.avgRdBWSys          1842223276.48630428                       # Average system read bandwidth in Byte/s ((Byte/Second))
system.far_mem_ctrl0.avgWrBWSys          303628055.63185102                       # Average system write bandwidth in Byte/s ((Byte/Second))
system.far_mem_ctrl0.totGap                 100019000                       # Total gap between requests (Tick)
system.far_mem_ctrl0.avgGap                  29794.16                       # Average gap between requests ((Tick/Count))
system.far_mem_ctrl0.requestorReadBytes::writebacks       184000                       # Per-requestor bytes read from memory (Byte)
system.far_mem_ctrl0.requestorWriteBytes::writebacks        24064                       # Per-requestor bytes write to memory (Byte)
system.far_mem_ctrl0.requestorReadRate::writebacks 1837748757.771729707718                       # Per-requestor bytes read from memory rate ((Byte/Second))
system.far_mem_ctrl0.requestorWriteRate::writebacks 240345576.668581008911                       # Per-requestor bytes write to memory rate ((Byte/Second))
system.far_mem_ctrl0.requestorReadAccesses::writebacks         2882                       # Per-requestor read serviced memory accesses (Count)
system.far_mem_ctrl0.requestorWriteAccesses::writebacks          475                       # Per-requestor write serviced memory accesses (Count)
system.far_mem_ctrl0.requestorReadTotalLat::writebacks    868057790                       # Per-requestor read total memory access latency (Tick)
system.far_mem_ctrl0.requestorWriteTotalLat::writebacks   4924552320                       # Per-requestor write total memory access latency (Tick)
system.far_mem_ctrl0.requestorReadAvgLat::writebacks    301199.79                       # Per-requestor read average memory access latency ((Tick/Count))
system.far_mem_ctrl0.requestorWriteAvgLat::writebacks  10367478.57                       # Per-requestor write average memory access latency ((Tick/Count))
system.far_mem_ctrl0.dram.bytesRead::writebacks       183936                       # Number of bytes read from this memory (Byte)
system.far_mem_ctrl0.dram.bytesRead::total       183936                       # Number of bytes read from this memory (Byte)
system.far_mem_ctrl0.dram.bytesWritten::writebacks        30400                       # Number of bytes written to this memory (Byte)
system.far_mem_ctrl0.dram.bytesWritten::total        30400                       # Number of bytes written to this memory (Byte)
system.far_mem_ctrl0.dram.numReads::writebacks         2874                       # Number of read requests responded to by this memory (Count)
system.far_mem_ctrl0.dram.numReads::total         2874                       # Number of read requests responded to by this memory (Count)
system.far_mem_ctrl0.dram.numWrites::writebacks          475                       # Number of write requests responded to by this memory (Count)
system.far_mem_ctrl0.dram.numWrites::total          475                       # Number of write requests responded to by this memory (Count)
system.far_mem_ctrl0.dram.bwRead::writebacks   1837109541                       # Total read bandwidth from this memory ((Byte/Second))
system.far_mem_ctrl0.dram.bwRead::total    1837109541                       # Total read bandwidth from this memory ((Byte/Second))
system.far_mem_ctrl0.dram.bwWrite::writebacks    303628056                       # Write bandwidth from this memory ((Byte/Second))
system.far_mem_ctrl0.dram.bwWrite::total    303628056                       # Write bandwidth from this memory ((Byte/Second))
system.far_mem_ctrl0.dram.bwTotal::writebacks   2140737596                       # Total bandwidth to/from this memory ((Byte/Second))
system.far_mem_ctrl0.dram.bwTotal::total   2140737596                       # Total bandwidth to/from this memory ((Byte/Second))
system.far_mem_ctrl0.dram.readBursts             2875                       # Number of NVM read bursts (Count)
system.far_mem_ctrl0.dram.writeBursts             376                       # Number of NVM write bursts (Count)
system.far_mem_ctrl0.dram.perBankRdBursts::0          204                       # Per bank write bursts (Count)
system.far_mem_ctrl0.dram.perBankRdBursts::1          199                       # Per bank write bursts (Count)
system.far_mem_ctrl0.dram.perBankRdBursts::2          172                       # Per bank write bursts (Count)
system.far_mem_ctrl0.dram.perBankRdBursts::3          182                       # Per bank write bursts (Count)
system.far_mem_ctrl0.dram.perBankRdBursts::4          175                       # Per bank write bursts (Count)
system.far_mem_ctrl0.dram.perBankRdBursts::5          165                       # Per bank write bursts (Count)
system.far_mem_ctrl0.dram.perBankRdBursts::6          199                       # Per bank write bursts (Count)
system.far_mem_ctrl0.dram.perBankRdBursts::7          156                       # Per bank write bursts (Count)
system.far_mem_ctrl0.dram.perBankRdBursts::8          176                       # Per bank write bursts (Count)
system.far_mem_ctrl0.dram.perBankRdBursts::9          200                       # Per bank write bursts (Count)
system.far_mem_ctrl0.dram.perBankRdBursts::10          178                       # Per bank write bursts (Count)
system.far_mem_ctrl0.dram.perBankRdBursts::11          179                       # Per bank write bursts (Count)
system.far_mem_ctrl0.dram.perBankRdBursts::12          176                       # Per bank write bursts (Count)
system.far_mem_ctrl0.dram.perBankRdBursts::13          157                       # Per bank write bursts (Count)
system.far_mem_ctrl0.dram.perBankRdBursts::14          148                       # Per bank write bursts (Count)
system.far_mem_ctrl0.dram.perBankRdBursts::15          209                       # Per bank write bursts (Count)
system.far_mem_ctrl0.dram.perBankWrBursts::0           28                       # Per bank write bursts (Count)
system.far_mem_ctrl0.dram.perBankWrBursts::1           22                       # Per bank write bursts (Count)
system.far_mem_ctrl0.dram.perBankWrBursts::2           14                       # Per bank write bursts (Count)
system.far_mem_ctrl0.dram.perBankWrBursts::3           25                       # Per bank write bursts (Count)
system.far_mem_ctrl0.dram.perBankWrBursts::4           28                       # Per bank write bursts (Count)
system.far_mem_ctrl0.dram.perBankWrBursts::5           22                       # Per bank write bursts (Count)
system.far_mem_ctrl0.dram.perBankWrBursts::6           25                       # Per bank write bursts (Count)
system.far_mem_ctrl0.dram.perBankWrBursts::7           27                       # Per bank write bursts (Count)
system.far_mem_ctrl0.dram.perBankWrBursts::8           23                       # Per bank write bursts (Count)
system.far_mem_ctrl0.dram.perBankWrBursts::9           29                       # Per bank write bursts (Count)
system.far_mem_ctrl0.dram.perBankWrBursts::10           23                       # Per bank write bursts (Count)
system.far_mem_ctrl0.dram.perBankWrBursts::11           25                       # Per bank write bursts (Count)
system.far_mem_ctrl0.dram.perBankWrBursts::12           18                       # Per bank write bursts (Count)
system.far_mem_ctrl0.dram.perBankWrBursts::13           24                       # Per bank write bursts (Count)
system.far_mem_ctrl0.dram.perBankWrBursts::14           14                       # Per bank write bursts (Count)
system.far_mem_ctrl0.dram.perBankWrBursts::15           29                       # Per bank write bursts (Count)
system.far_mem_ctrl0.dram.totQLat           817768290                       # Total ticks spent queuing (Tick)
system.far_mem_ctrl0.dram.totBusLat           9579500                       # Total ticks spent in databus transfers (Tick)
system.far_mem_ctrl0.dram.totMemAccLat      868057790                       # Total ticks spent from burst creation until serviced by the NVM (Tick)
system.far_mem_ctrl0.dram.avgQLat           284441.14                       # Average queueing delay per NVM burst ((Tick/Count))
system.far_mem_ctrl0.dram.avgBusLat           3332.00                       # Average bus latency per NVM burst ((Tick/Count))
system.far_mem_ctrl0.dram.avgMemAccLat      301933.14                       # Average memory access latency per NVM burst ((Tick/Count))
system.far_mem_ctrl0.dram.avgRdBW             1837.75                       # Average DRAM read bandwidth in MiBytes/s ((Byte/Second))
system.far_mem_ctrl0.dram.avgWrBW              240.35                       # Average DRAM write bandwidth in MiBytes/s ((Byte/Second))
system.far_mem_ctrl0.dram.peakBW             19207.00                       # Theoretical peak bandwidth in MiByte/s ((Byte/Second))
system.far_mem_ctrl0.dram.busUtil               10.82                       # NVM Data bus utilization in percentage (Ratio)
system.far_mem_ctrl0.dram.busUtilRead            9.57                       # NVM Data bus read utilization in percentage (Ratio)
system.far_mem_ctrl0.dram.busUtilWrite           1.25                       # NVM Data bus write utilization in percentage (Ratio)
system.far_mem_ctrl0.dram.pendingReads::samples         2875                       # Reads issued to NVM for which data has not been transferred (Count)
system.far_mem_ctrl0.dram.pendingReads::mean     8.089043                       # Reads issued to NVM for which data has not been transferred (Count)
system.far_mem_ctrl0.dram.pendingReads::stdev     6.796352                       # Reads issued to NVM for which data has not been transferred (Count)
system.far_mem_ctrl0.dram.pendingReads::0           40      1.39%      1.39% # Reads issued to NVM for which data has not been transferred (Count)
system.far_mem_ctrl0.dram.pendingReads::1          126      4.38%      5.77% # Reads issued to NVM for which data has not been transferred (Count)
system.far_mem_ctrl0.dram.pendingReads::2          189      6.57%     12.35% # Reads issued to NVM for which data has not been transferred (Count)
system.far_mem_ctrl0.dram.pendingReads::3          242      8.42%     20.77% # Reads issued to NVM for which data has not been transferred (Count)
system.far_mem_ctrl0.dram.pendingReads::4          259      9.01%     29.77% # Reads issued to NVM for which data has not been transferred (Count)
system.far_mem_ctrl0.dram.pendingReads::5          292     10.16%     39.93% # Reads issued to NVM for which data has not been transferred (Count)
system.far_mem_ctrl0.dram.pendingReads::6          269      9.36%     49.29% # Reads issued to NVM for which data has not been transferred (Count)
system.far_mem_ctrl0.dram.pendingReads::7          267      9.29%     58.57% # Reads issued to NVM for which data has not been transferred (Count)
system.far_mem_ctrl0.dram.pendingReads::8          223      7.76%     66.33% # Reads issued to NVM for which data has not been transferred (Count)
system.far_mem_ctrl0.dram.pendingReads::9          183      6.37%     72.70% # Reads issued to NVM for which data has not been transferred (Count)
system.far_mem_ctrl0.dram.pendingReads::10          149      5.18%     77.88% # Reads issued to NVM for which data has not been transferred (Count)
system.far_mem_ctrl0.dram.pendingReads::11          119      4.14%     82.02% # Reads issued to NVM for which data has not been transferred (Count)
system.far_mem_ctrl0.dram.pendingReads::12           94      3.27%     85.29% # Reads issued to NVM for which data has not been transferred (Count)
system.far_mem_ctrl0.dram.pendingReads::13           80      2.78%     88.07% # Reads issued to NVM for which data has not been transferred (Count)
system.far_mem_ctrl0.dram.pendingReads::14           60      2.09%     90.16% # Reads issued to NVM for which data has not been transferred (Count)
system.far_mem_ctrl0.dram.pendingReads::15           49      1.70%     91.86% # Reads issued to NVM for which data has not been transferred (Count)
system.far_mem_ctrl0.dram.pendingReads::16           27      0.94%     92.80% # Reads issued to NVM for which data has not been transferred (Count)
system.far_mem_ctrl0.dram.pendingReads::17           27      0.94%     93.74% # Reads issued to NVM for which data has not been transferred (Count)
system.far_mem_ctrl0.dram.pendingReads::18           14      0.49%     94.23% # Reads issued to NVM for which data has not been transferred (Count)
system.far_mem_ctrl0.dram.pendingReads::19           11      0.38%     94.61% # Reads issued to NVM for which data has not been transferred (Count)
system.far_mem_ctrl0.dram.pendingReads::20           11      0.38%     94.99% # Reads issued to NVM for which data has not been transferred (Count)
system.far_mem_ctrl0.dram.pendingReads::21           13      0.45%     95.44% # Reads issued to NVM for which data has not been transferred (Count)
system.far_mem_ctrl0.dram.pendingReads::22            7      0.24%     95.69% # Reads issued to NVM for which data has not been transferred (Count)
system.far_mem_ctrl0.dram.pendingReads::23            5      0.17%     95.86% # Reads issued to NVM for which data has not been transferred (Count)
system.far_mem_ctrl0.dram.pendingReads::24            4      0.14%     96.00% # Reads issued to NVM for which data has not been transferred (Count)
system.far_mem_ctrl0.dram.pendingReads::25            7      0.24%     96.24% # Reads issued to NVM for which data has not been transferred (Count)
system.far_mem_ctrl0.dram.pendingReads::26            7      0.24%     96.49% # Reads issued to NVM for which data has not been transferred (Count)
system.far_mem_ctrl0.dram.pendingReads::27            7      0.24%     96.73% # Reads issued to NVM for which data has not been transferred (Count)
system.far_mem_ctrl0.dram.pendingReads::28            9      0.31%     97.04% # Reads issued to NVM for which data has not been transferred (Count)
system.far_mem_ctrl0.dram.pendingReads::29            6      0.21%     97.25% # Reads issued to NVM for which data has not been transferred (Count)
system.far_mem_ctrl0.dram.pendingReads::30            7      0.24%     97.50% # Reads issued to NVM for which data has not been transferred (Count)
system.far_mem_ctrl0.dram.pendingReads::31            7      0.24%     97.74% # Reads issued to NVM for which data has not been transferred (Count)
system.far_mem_ctrl0.dram.pendingReads::32            8      0.28%     98.02% # Reads issued to NVM for which data has not been transferred (Count)
system.far_mem_ctrl0.dram.pendingReads::33            4      0.14%     98.16% # Reads issued to NVM for which data has not been transferred (Count)
system.far_mem_ctrl0.dram.pendingReads::34            2      0.07%     98.23% # Reads issued to NVM for which data has not been transferred (Count)
system.far_mem_ctrl0.dram.pendingReads::35            3      0.10%     98.33% # Reads issued to NVM for which data has not been transferred (Count)
system.far_mem_ctrl0.dram.pendingReads::36            2      0.07%     98.40% # Reads issued to NVM for which data has not been transferred (Count)
system.far_mem_ctrl0.dram.pendingReads::37            8      0.28%     98.68% # Reads issued to NVM for which data has not been transferred (Count)
system.far_mem_ctrl0.dram.pendingReads::38            9      0.31%     98.99% # Reads issued to NVM for which data has not been transferred (Count)
system.far_mem_ctrl0.dram.pendingReads::39            7      0.24%     99.23% # Reads issued to NVM for which data has not been transferred (Count)
system.far_mem_ctrl0.dram.pendingReads::40            6      0.21%     99.44% # Reads issued to NVM for which data has not been transferred (Count)
system.far_mem_ctrl0.dram.pendingReads::41            4      0.14%     99.58% # Reads issued to NVM for which data has not been transferred (Count)
system.far_mem_ctrl0.dram.pendingReads::42            5      0.17%     99.76% # Reads issued to NVM for which data has not been transferred (Count)
system.far_mem_ctrl0.dram.pendingReads::43            2      0.07%     99.83% # Reads issued to NVM for which data has not been transferred (Count)
system.far_mem_ctrl0.dram.pendingReads::44            4      0.14%     99.97% # Reads issued to NVM for which data has not been transferred (Count)
system.far_mem_ctrl0.dram.pendingReads::45            1      0.03%    100.00% # Reads issued to NVM for which data has not been transferred (Count)
system.far_mem_ctrl0.dram.pendingReads::total         2875                       # Reads issued to NVM for which data has not been transferred (Count)
system.far_mem_ctrl0.dram.pendingWrites::samples          360                       # Number of outstanding writes to NVM (Count)
system.far_mem_ctrl0.dram.pendingWrites::mean    14.519444                       # Number of outstanding writes to NVM (Count)
system.far_mem_ctrl0.dram.pendingWrites::gmean     9.820969                       # Number of outstanding writes to NVM (Count)
system.far_mem_ctrl0.dram.pendingWrites::stdev    13.180540                       # Number of outstanding writes to NVM (Count)
system.far_mem_ctrl0.dram.pendingWrites::1           17      4.72%      4.72% # Number of outstanding writes to NVM (Count)
system.far_mem_ctrl0.dram.pendingWrites::2           17      4.72%      9.44% # Number of outstanding writes to NVM (Count)
system.far_mem_ctrl0.dram.pendingWrites::3           17      4.72%     14.17% # Number of outstanding writes to NVM (Count)
system.far_mem_ctrl0.dram.pendingWrites::4           17      4.72%     18.89% # Number of outstanding writes to NVM (Count)
system.far_mem_ctrl0.dram.pendingWrites::5           17      4.72%     23.61% # Number of outstanding writes to NVM (Count)
system.far_mem_ctrl0.dram.pendingWrites::6           17      4.72%     28.33% # Number of outstanding writes to NVM (Count)
system.far_mem_ctrl0.dram.pendingWrites::7           17      4.72%     33.06% # Number of outstanding writes to NVM (Count)
system.far_mem_ctrl0.dram.pendingWrites::8           17      4.72%     37.78% # Number of outstanding writes to NVM (Count)
system.far_mem_ctrl0.dram.pendingWrites::9           17      4.72%     42.50% # Number of outstanding writes to NVM (Count)
system.far_mem_ctrl0.dram.pendingWrites::10           17      4.72%     47.22% # Number of outstanding writes to NVM (Count)
system.far_mem_ctrl0.dram.pendingWrites::11           17      4.72%     51.94% # Number of outstanding writes to NVM (Count)
system.far_mem_ctrl0.dram.pendingWrites::12           17      4.72%     56.67% # Number of outstanding writes to NVM (Count)
system.far_mem_ctrl0.dram.pendingWrites::13           17      4.72%     61.39% # Number of outstanding writes to NVM (Count)
system.far_mem_ctrl0.dram.pendingWrites::14           17      4.72%     66.11% # Number of outstanding writes to NVM (Count)
system.far_mem_ctrl0.dram.pendingWrites::15           17      4.72%     70.83% # Number of outstanding writes to NVM (Count)
system.far_mem_ctrl0.dram.pendingWrites::16           17      4.72%     75.56% # Number of outstanding writes to NVM (Count)
system.far_mem_ctrl0.dram.pendingWrites::17            5      1.39%     76.94% # Number of outstanding writes to NVM (Count)
system.far_mem_ctrl0.dram.pendingWrites::18            4      1.11%     78.06% # Number of outstanding writes to NVM (Count)
system.far_mem_ctrl0.dram.pendingWrites::19            4      1.11%     79.17% # Number of outstanding writes to NVM (Count)
system.far_mem_ctrl0.dram.pendingWrites::20            4      1.11%     80.28% # Number of outstanding writes to NVM (Count)
system.far_mem_ctrl0.dram.pendingWrites::21            4      1.11%     81.39% # Number of outstanding writes to NVM (Count)
system.far_mem_ctrl0.dram.pendingWrites::22            4      1.11%     82.50% # Number of outstanding writes to NVM (Count)
system.far_mem_ctrl0.dram.pendingWrites::23            3      0.83%     83.33% # Number of outstanding writes to NVM (Count)
system.far_mem_ctrl0.dram.pendingWrites::24            3      0.83%     84.17% # Number of outstanding writes to NVM (Count)
system.far_mem_ctrl0.dram.pendingWrites::25            3      0.83%     85.00% # Number of outstanding writes to NVM (Count)
system.far_mem_ctrl0.dram.pendingWrites::26            3      0.83%     85.83% # Number of outstanding writes to NVM (Count)
system.far_mem_ctrl0.dram.pendingWrites::27            3      0.83%     86.67% # Number of outstanding writes to NVM (Count)
system.far_mem_ctrl0.dram.pendingWrites::28            3      0.83%     87.50% # Number of outstanding writes to NVM (Count)
system.far_mem_ctrl0.dram.pendingWrites::29            2      0.56%     88.06% # Number of outstanding writes to NVM (Count)
system.far_mem_ctrl0.dram.pendingWrites::30            2      0.56%     88.61% # Number of outstanding writes to NVM (Count)
system.far_mem_ctrl0.dram.pendingWrites::31            2      0.56%     89.17% # Number of outstanding writes to NVM (Count)
system.far_mem_ctrl0.dram.pendingWrites::32            2      0.56%     89.72% # Number of outstanding writes to NVM (Count)
system.far_mem_ctrl0.dram.pendingWrites::33            2      0.56%     90.28% # Number of outstanding writes to NVM (Count)
system.far_mem_ctrl0.dram.pendingWrites::34            2      0.56%     90.83% # Number of outstanding writes to NVM (Count)
system.far_mem_ctrl0.dram.pendingWrites::35            2      0.56%     91.39% # Number of outstanding writes to NVM (Count)
system.far_mem_ctrl0.dram.pendingWrites::36            2      0.56%     91.94% # Number of outstanding writes to NVM (Count)
system.far_mem_ctrl0.dram.pendingWrites::37            2      0.56%     92.50% # Number of outstanding writes to NVM (Count)
system.far_mem_ctrl0.dram.pendingWrites::38            1      0.28%     92.78% # Number of outstanding writes to NVM (Count)
system.far_mem_ctrl0.dram.pendingWrites::39            1      0.28%     93.06% # Number of outstanding writes to NVM (Count)
system.far_mem_ctrl0.dram.pendingWrites::40            1      0.28%     93.33% # Number of outstanding writes to NVM (Count)
system.far_mem_ctrl0.dram.pendingWrites::41            1      0.28%     93.61% # Number of outstanding writes to NVM (Count)
system.far_mem_ctrl0.dram.pendingWrites::42            1      0.28%     93.89% # Number of outstanding writes to NVM (Count)
system.far_mem_ctrl0.dram.pendingWrites::43            1      0.28%     94.17% # Number of outstanding writes to NVM (Count)
system.far_mem_ctrl0.dram.pendingWrites::44            1      0.28%     94.44% # Number of outstanding writes to NVM (Count)
system.far_mem_ctrl0.dram.pendingWrites::45            1      0.28%     94.72% # Number of outstanding writes to NVM (Count)
system.far_mem_ctrl0.dram.pendingWrites::46            1      0.28%     95.00% # Number of outstanding writes to NVM (Count)
system.far_mem_ctrl0.dram.pendingWrites::47            1      0.28%     95.28% # Number of outstanding writes to NVM (Count)
system.far_mem_ctrl0.dram.pendingWrites::48            1      0.28%     95.56% # Number of outstanding writes to NVM (Count)
system.far_mem_ctrl0.dram.pendingWrites::49            1      0.28%     95.83% # Number of outstanding writes to NVM (Count)
system.far_mem_ctrl0.dram.pendingWrites::50            1      0.28%     96.11% # Number of outstanding writes to NVM (Count)
system.far_mem_ctrl0.dram.pendingWrites::51            1      0.28%     96.39% # Number of outstanding writes to NVM (Count)
system.far_mem_ctrl0.dram.pendingWrites::52            1      0.28%     96.67% # Number of outstanding writes to NVM (Count)
system.far_mem_ctrl0.dram.pendingWrites::53            1      0.28%     96.94% # Number of outstanding writes to NVM (Count)
system.far_mem_ctrl0.dram.pendingWrites::54            1      0.28%     97.22% # Number of outstanding writes to NVM (Count)
system.far_mem_ctrl0.dram.pendingWrites::55            1      0.28%     97.50% # Number of outstanding writes to NVM (Count)
system.far_mem_ctrl0.dram.pendingWrites::56            1      0.28%     97.78% # Number of outstanding writes to NVM (Count)
system.far_mem_ctrl0.dram.pendingWrites::57            1      0.28%     98.06% # Number of outstanding writes to NVM (Count)
system.far_mem_ctrl0.dram.pendingWrites::58            1      0.28%     98.33% # Number of outstanding writes to NVM (Count)
system.far_mem_ctrl0.dram.pendingWrites::59            1      0.28%     98.61% # Number of outstanding writes to NVM (Count)
system.far_mem_ctrl0.dram.pendingWrites::60            1      0.28%     98.89% # Number of outstanding writes to NVM (Count)
system.far_mem_ctrl0.dram.pendingWrites::61            1      0.28%     99.17% # Number of outstanding writes to NVM (Count)
system.far_mem_ctrl0.dram.pendingWrites::62            1      0.28%     99.44% # Number of outstanding writes to NVM (Count)
system.far_mem_ctrl0.dram.pendingWrites::63            1      0.28%     99.72% # Number of outstanding writes to NVM (Count)
system.far_mem_ctrl0.dram.pendingWrites::64            1      0.28%    100.00% # Number of outstanding writes to NVM (Count)
system.far_mem_ctrl0.dram.pendingWrites::total          360                       # Number of outstanding writes to NVM (Count)
system.far_mem_ctrl0.dram.bytesPerBank::samples         3258                       # Bytes read within a bank before loading new bank (Byte)
system.far_mem_ctrl0.dram.bytesPerBank::mean           64                       # Bytes read within a bank before loading new bank (Byte)
system.far_mem_ctrl0.dram.bytesPerBank::gmean    64.000000                       # Bytes read within a bank before loading new bank (Byte)
system.far_mem_ctrl0.dram.bytesPerBank::64         3258    100.00%    100.00% # Bytes read within a bank before loading new bank (Byte)
system.far_mem_ctrl0.dram.bytesPerBank::total         3258                       # Bytes read within a bank before loading new bank (Byte)
system.far_mem_ctrl0.dram.power_state.pwrStateResidencyTicks::UNDEFINED    100122500                       # Cumulative time (in ticks) in various power states (Tick)
system.far_mem_ctrl0.power_state.pwrStateResidencyTicks::UNDEFINED    100122500                       # Cumulative time (in ticks) in various power states (Tick)
system.far_mem_ctrl1.avgPriority_writebacks::samples      3179.00                       # Average QoS priority value for accepted requests (Count)
system.far_mem_ctrl1.priorityMinLatency  0.000000317492                       # per QoS priority minimum request to response latency (Second)
system.far_mem_ctrl1.priorityMaxLatency  0.000060823490                       # per QoS priority maximum request to response latency (Second)
system.far_mem_ctrl1.numReadWriteTurnArounds           19                       # Number of turnarounds from READ to WRITE (Count)
system.far_mem_ctrl1.numWriteReadTurnArounds           19                       # Number of turnarounds from WRITE to READ (Count)
system.far_mem_ctrl1.numStayReadState            8900                       # Number of times bus staying in READ state (Count)
system.far_mem_ctrl1.numStayWriteState            325                       # Number of times bus staying in WRITE state (Count)
system.far_mem_ctrl1.readReqs                    2732                       # Number of read requests accepted (Count)
system.far_mem_ctrl1.writeReqs                    447                       # Number of write requests accepted (Count)
system.far_mem_ctrl1.readBursts                  2732                       # Number of controller read bursts, including those serviced by the write queue (Count)
system.far_mem_ctrl1.writeBursts                  447                       # Number of controller write bursts, including those merged in the write queue (Count)
system.far_mem_ctrl1.servicedByWrQ                  0                       # Number of controller read bursts serviced by the write queue (Count)
system.far_mem_ctrl1.mergedWrBursts                 0                       # Number of controller write bursts merged with an existing one (Count)
system.far_mem_ctrl1.neitherReadNorWriteReqs            0                       # Number of requests that are neither read nor write (Count)
system.far_mem_ctrl1.avgRdQLen                   9.71                       # Average read queue length when enqueuing ((Count/Tick))
system.far_mem_ctrl1.avgWrQLen                  56.15                       # Average write queue length when enqueuing ((Count/Tick))
system.far_mem_ctrl1.numRdRetry                     0                       # Number of times read queue was full causing retry (Count)
system.far_mem_ctrl1.numWrRetry                     0                       # Number of times write queue was full causing retry (Count)
system.far_mem_ctrl1.readPktSize::0                 0                       # Read request sizes (log2) (Count)
system.far_mem_ctrl1.readPktSize::1                 0                       # Read request sizes (log2) (Count)
system.far_mem_ctrl1.readPktSize::2                 0                       # Read request sizes (log2) (Count)
system.far_mem_ctrl1.readPktSize::3                 0                       # Read request sizes (log2) (Count)
system.far_mem_ctrl1.readPktSize::4                 0                       # Read request sizes (log2) (Count)
system.far_mem_ctrl1.readPktSize::5                 0                       # Read request sizes (log2) (Count)
system.far_mem_ctrl1.readPktSize::6              2732                       # Read request sizes (log2) (Count)
system.far_mem_ctrl1.writePktSize::0                0                       # Write request sizes (log2) (Count)
system.far_mem_ctrl1.writePktSize::1                0                       # Write request sizes (log2) (Count)
system.far_mem_ctrl1.writePktSize::2                0                       # Write request sizes (log2) (Count)
system.far_mem_ctrl1.writePktSize::3                0                       # Write request sizes (log2) (Count)
system.far_mem_ctrl1.writePktSize::4                0                       # Write request sizes (log2) (Count)
system.far_mem_ctrl1.writePktSize::5                0                       # Write request sizes (log2) (Count)
system.far_mem_ctrl1.writePktSize::6              447                       # Write request sizes (log2) (Count)
system.far_mem_ctrl1.rdQLenPdf::0                  40                       # What read queue length does an incoming req see (Count)
system.far_mem_ctrl1.rdQLenPdf::1                 100                       # What read queue length does an incoming req see (Count)
system.far_mem_ctrl1.rdQLenPdf::2                 195                       # What read queue length does an incoming req see (Count)
system.far_mem_ctrl1.rdQLenPdf::3                 239                       # What read queue length does an incoming req see (Count)
system.far_mem_ctrl1.rdQLenPdf::4                 266                       # What read queue length does an incoming req see (Count)
system.far_mem_ctrl1.rdQLenPdf::5                 284                       # What read queue length does an incoming req see (Count)
system.far_mem_ctrl1.rdQLenPdf::6                 262                       # What read queue length does an incoming req see (Count)
system.far_mem_ctrl1.rdQLenPdf::7                 222                       # What read queue length does an incoming req see (Count)
system.far_mem_ctrl1.rdQLenPdf::8                 189                       # What read queue length does an incoming req see (Count)
system.far_mem_ctrl1.rdQLenPdf::9                 150                       # What read queue length does an incoming req see (Count)
system.far_mem_ctrl1.rdQLenPdf::10                120                       # What read queue length does an incoming req see (Count)
system.far_mem_ctrl1.rdQLenPdf::11                123                       # What read queue length does an incoming req see (Count)
system.far_mem_ctrl1.rdQLenPdf::12                115                       # What read queue length does an incoming req see (Count)
system.far_mem_ctrl1.rdQLenPdf::13                 98                       # What read queue length does an incoming req see (Count)
system.far_mem_ctrl1.rdQLenPdf::14                 75                       # What read queue length does an incoming req see (Count)
system.far_mem_ctrl1.rdQLenPdf::15                 51                       # What read queue length does an incoming req see (Count)
system.far_mem_ctrl1.rdQLenPdf::16                 46                       # What read queue length does an incoming req see (Count)
system.far_mem_ctrl1.rdQLenPdf::17                 38                       # What read queue length does an incoming req see (Count)
system.far_mem_ctrl1.rdQLenPdf::18                 24                       # What read queue length does an incoming req see (Count)
system.far_mem_ctrl1.rdQLenPdf::19                 15                       # What read queue length does an incoming req see (Count)
system.far_mem_ctrl1.rdQLenPdf::20                 12                       # What read queue length does an incoming req see (Count)
system.far_mem_ctrl1.rdQLenPdf::21                 15                       # What read queue length does an incoming req see (Count)
system.far_mem_ctrl1.rdQLenPdf::22                  8                       # What read queue length does an incoming req see (Count)
system.far_mem_ctrl1.rdQLenPdf::23                  4                       # What read queue length does an incoming req see (Count)
system.far_mem_ctrl1.rdQLenPdf::24                  5                       # What read queue length does an incoming req see (Count)
system.far_mem_ctrl1.rdQLenPdf::25                  5                       # What read queue length does an incoming req see (Count)
system.far_mem_ctrl1.rdQLenPdf::26                  7                       # What read queue length does an incoming req see (Count)
system.far_mem_ctrl1.rdQLenPdf::27                  7                       # What read queue length does an incoming req see (Count)
system.far_mem_ctrl1.rdQLenPdf::28                  4                       # What read queue length does an incoming req see (Count)
system.far_mem_ctrl1.rdQLenPdf::29                  5                       # What read queue length does an incoming req see (Count)
system.far_mem_ctrl1.rdQLenPdf::30                  3                       # What read queue length does an incoming req see (Count)
system.far_mem_ctrl1.rdQLenPdf::31                  5                       # What read queue length does an incoming req see (Count)
system.far_mem_ctrl1.rdQLenPdf::32                  0                       # What read queue length does an incoming req see (Count)
system.far_mem_ctrl1.rdQLenPdf::33                  0                       # What read queue length does an incoming req see (Count)
system.far_mem_ctrl1.rdQLenPdf::34                  0                       # What read queue length does an incoming req see (Count)
system.far_mem_ctrl1.rdQLenPdf::35                  0                       # What read queue length does an incoming req see (Count)
system.far_mem_ctrl1.rdQLenPdf::36                  0                       # What read queue length does an incoming req see (Count)
system.far_mem_ctrl1.rdQLenPdf::37                  0                       # What read queue length does an incoming req see (Count)
system.far_mem_ctrl1.rdQLenPdf::38                  0                       # What read queue length does an incoming req see (Count)
system.far_mem_ctrl1.rdQLenPdf::39                  0                       # What read queue length does an incoming req see (Count)
system.far_mem_ctrl1.rdQLenPdf::40                  0                       # What read queue length does an incoming req see (Count)
system.far_mem_ctrl1.rdQLenPdf::41                  0                       # What read queue length does an incoming req see (Count)
system.far_mem_ctrl1.rdQLenPdf::42                  0                       # What read queue length does an incoming req see (Count)
system.far_mem_ctrl1.rdQLenPdf::43                  0                       # What read queue length does an incoming req see (Count)
system.far_mem_ctrl1.rdQLenPdf::44                  0                       # What read queue length does an incoming req see (Count)
[...]
system.membus.pktCount_system.generators01.port::system.mem_ctrl0.port          752                       # Packet count per connected requestor and responder (Count)
system.membus.pktCount_system.generators01.port::system.mem_ctrl1.port          674                       # Packet count per connected requestor and responder (Count)
system.membus.pktCount_system.generators01.port::total         1426                       # Packet count per connected requestor and responder (Count)
system.membus.pktCount_system.generators02.port::system.mem_ctrl0.port          743                       # Packet count per connected requestor and responder (Count)
system.membus.pktCount_system.generators02.port::system.mem_ctrl1.port          678                       # Packet count per connected requestor and responder (Count)
system.membus.pktCount_system.generators02.port::total         1421                       # Packet count per connected requestor and responder (Count)
system.membus.pktCount_system.generators03.port::system.mem_ctrl0.port          730                       # Packet count per connected requestor and responder (Count)
system.membus.pktCount_system.generators03.port::system.mem_ctrl1.port          789                       # Packet count per connected requestor and responder (Count)
system.membus.pktCount_system.generators03.port::total         1519                       # Packet count per connected requestor and responder (Count)
system.membus.pktCount_system.generators04.port::system.mem_ctrl0.port          738                       # Packet count per connected requestor and responder (Count)
system.membus.pktCount_system.generators04.port::system.mem_ctrl1.port          693                       # Packet count per connected requestor and responder (Count)
system.membus.pktCount_system.generators04.port::total         1431                       # Packet count per connected requestor and responder (Count)
system.membus.pktCount_system.generators05.port::system.mem_ctrl0.port          739                       # Packet count per connected requestor and responder (Count)
system.membus.pktCount_system.generators05.port::system.mem_ctrl1.port          760                       # Packet count per connected requestor and responder (Count)
system.membus.pktCount_system.generators05.port::total         1499                       # Packet count per connected requestor and responder (Count)
system.membus.pktCount_system.generators06.port::system.mem_ctrl0.port          750                       # Packet count per connected requestor and responder (Count)
system.membus.pktCount_system.generators06.port::system.mem_ctrl1.port          687                       # Packet count per connected requestor and responder (Count)
system.membus.pktCount_system.generators06.port::total         1437                       # Packet count per connected requestor and responder (Count)
system.membus.pktCount_system.generators07.port::system.mem_ctrl0.port          735                       # Packet count per connected requestor and responder (Count)
system.membus.pktCount_system.generators07.port::system.mem_ctrl1.port          807                       # Packet count per connected requestor and responder (Count)
system.membus.pktCount_system.generators07.port::total         1542                       # Packet count per connected requestor and responder (Count)
system.membus.pktCount_system.generators08.port::system.mem_ctrl0.port          723                       # Packet count per connected requestor and responder (Count)
system.membus.pktCount_system.generators08.port::system.mem_ctrl1.port          633                       # Packet count per connected requestor and responder (Count)
system.membus.pktCount_system.generators08.port::total         1356                       # Packet count per connected requestor and responder (Count)
system.membus.pktCount_system.generators09.port::system.mem_ctrl0.port          725                       # Packet count per connected requestor and responder (Count)
system.membus.pktCount_system.generators09.port::system.mem_ctrl1.port          779                       # Packet count per connected requestor and responder (Count)
system.membus.pktCount_system.generators09.port::total         1504                       # Packet count per connected requestor and responder (Count)
system.membus.pktCount_system.generators10.port::system.mem_ctrl0.port          730                       # Packet count per connected requestor and responder (Count)
system.membus.pktCount_system.generators10.port::system.mem_ctrl1.port          727                       # Packet count per connected requestor and responder (Count)
system.membus.pktCount_system.generators10.port::total         1457                       # Packet count per connected requestor and responder (Count)
system.membus.pktCount_system.generators11.port::system.mem_ctrl0.port          728                       # Packet count per connected requestor and responder (Count)
system.membus.pktCount_system.generators11.port::system.mem_ctrl1.port          745                       # Packet count per connected requestor and responder (Count)
system.membus.pktCount_system.generators11.port::total         1473                       # Packet count per connected requestor and responder (Count)
system.membus.pktCount_system.generators12.port::system.mem_ctrl0.port          739                       # Packet count per connected requestor and responder (Count)
system.membus.pktCount_system.generators12.port::system.mem_ctrl1.port          782                       # Packet count per connected requestor and responder (Count)
system.membus.pktCount_system.generators12.port::total         1521                       # Packet count per connected requestor and responder (Count)
system.membus.pktCount_system.generators13.port::system.mem_ctrl0.port          730                       # Packet count per connected requestor and responder (Count)
system.membus.pktCount_system.generators13.port::system.mem_ctrl1.port          796                       # Packet count per connected requestor and responder (Count)
system.membus.pktCount_system.generators13.port::total         1526                       # Packet count per connected requestor and responder (Count)
system.membus.pktCount_system.generators14.port::system.mem_ctrl0.port          726                       # Packet count per connected requestor and responder (Count)
system.membus.pktCount_system.generators14.port::system.mem_ctrl1.port          678                       # Packet count per connected requestor and responder (Count)
system.membus.pktCount_system.generators14.port::total         1404                       # Packet count per connected requestor and responder (Count)
system.membus.pktCount_system.generators15.port::system.mem_ctrl0.port          741                       # Packet count per connected requestor and responder (Count)
system.membus.pktCount_system.generators15.port::system.mem_ctrl1.port          723                       # Packet count per connected requestor and responder (Count)
system.membus.pktCount_system.generators15.port::total         1464                       # Packet count per connected requestor and responder (Count)
system.membus.pktCount::total                   23367                       # Packet count per connected requestor and responder (Count)
system.membus.pktSize_system.generators00.port::system.mem_ctrl0.port        23360                       # Cumulative packet size per connected requestor and responder (Byte)
system.membus.pktSize_system.generators00.port::system.mem_ctrl1.port        20608                       # Cumulative packet size per connected requestor and responder (Byte)
system.membus.pktSize_system.generators00.port::total        43968                       # Cumulative packet size per connected requestor and responder (Byte)
system.membus.pktSize_system.generators01.port::system.mem_ctrl0.port        23936                       # Cumulative packet size per connected requestor and responder (Byte)
system.membus.pktSize_system.generators01.port::system.mem_ctrl1.port        21504                       # Cumulative packet size per connected requestor and responder (Byte)
system.membus.pktSize_system.generators01.port::total        45440                       # Cumulative packet size per connected requestor and responder (Byte)
system.membus.pktSize_system.generators02.port::system.mem_ctrl0.port        23552                       # Cumulative packet size per connected requestor and responder (Byte)
system.membus.pktSize_system.generators02.port::system.mem_ctrl1.port        21568                       # Cumulative packet size per connected requestor and responder (Byte)
system.membus.pktSize_system.generators02.port::total        45120                       # Cumulative packet size per connected requestor and responder (Byte)
system.membus.pktSize_system.generators03.port::system.mem_ctrl0.port        23168                       # Cumulative packet size per connected requestor and responder (Byte)
system.membus.pktSize_system.generators03.port::system.mem_ctrl1.port        25216                       # Cumulative packet size per connected requestor and responder (Byte)
system.membus.pktSize_system.generators03.port::total        48384                       # Cumulative packet size per connected requestor and responder (Byte)
system.membus.pktSize_system.generators04.port::system.mem_ctrl0.port        23232                       # Cumulative packet size per connected requestor and responder (Byte)
system.membus.pktSize_system.generators04.port::system.mem_ctrl1.port        22016                       # Cumulative packet size per connected requestor and responder (Byte)
system.membus.pktSize_system.generators04.port::total        45248                       # Cumulative packet size per connected requestor and responder (Byte)
system.membus.pktSize_system.generators05.port::system.mem_ctrl0.port        23488                       # Cumulative packet size per connected requestor and responder (Byte)
system.membus.pktSize_system.generators05.port::system.mem_ctrl1.port        24192                       # Cumulative packet size per connected requestor and responder (Byte)
system.membus.pktSize_system.generators05.port::total        47680                       # Cumulative packet size per connected requestor and responder (Byte)
system.membus.pktSize_system.generators06.port::system.mem_ctrl0.port        23808                       # Cumulative packet size per connected requestor and responder (Byte)
system.membus.pktSize_system.generators06.port::system.mem_ctrl1.port        21952                       # Cumulative packet size per connected requestor and responder (Byte)
system.membus.pktSize_system.generators06.port::total        45760                       # Cumulative packet size per connected requestor and responder (Byte)
system.membus.pktSize_system.generators07.port::system.mem_ctrl0.port        23296                       # Cumulative packet size per connected requestor and responder (Byte)
system.membus.pktSize_system.generators07.port::system.mem_ctrl1.port        25728                       # Cumulative packet size per connected requestor and responder (Byte)
system.membus.pktSize_system.generators07.port::total        49024                       # Cumulative packet size per connected requestor and responder (Byte)
system.membus.pktSize_system.generators08.port::system.mem_ctrl0.port        22912                       # Cumulative packet size per connected requestor and responder (Byte)
system.membus.pktSize_system.generators08.port::system.mem_ctrl1.port        19968                       # Cumulative packet size per connected requestor and responder (Byte)
system.membus.pktSize_system.generators08.port::total        42880                       # Cumulative packet size per connected requestor and responder (Byte)
system.membus.pktSize_system.generators09.port::system.mem_ctrl0.port        22976                       # Cumulative packet size per connected requestor and responder (Byte)
system.membus.pktSize_system.generators09.port::system.mem_ctrl1.port        24640                       # Cumulative packet size per connected requestor and responder (Byte)
system.membus.pktSize_system.generators09.port::total        47616                       # Cumulative packet size per connected requestor and responder (Byte)
system.membus.pktSize_system.generators10.port::system.mem_ctrl0.port        23168                       # Cumulative packet size per connected requestor and responder (Byte)
system.membus.pktSize_system.generators10.port::system.mem_ctrl1.port        23040                       # Cumulative packet size per connected requestor and responder (Byte)
system.membus.pktSize_system.generators10.port::total        46208                       # Cumulative packet size per connected requestor and responder (Byte)
system.membus.pktSize_system.generators11.port::system.mem_ctrl0.port        23168                       # Cumulative packet size per connected requestor and responder (Byte)
system.membus.pktSize_system.generators11.port::system.mem_ctrl1.port        23744                       # Cumulative packet size per connected requestor and responder (Byte)
system.membus.pktSize_system.generators11.port::total        46912                       # Cumulative packet size per connected requestor and responder (Byte)
system.membus.pktSize_system.generators12.port::system.mem_ctrl0.port        23552                       # Cumulative packet size per connected requestor and responder (Byte)
system.membus.pktSize_system.generators12.port::system.mem_ctrl1.port        24960                       # Cumulative packet size per connected requestor and responder (Byte)
system.membus.pktSize_system.generators12.port::total        48512                       # Cumulative packet size per connected requestor and responder (Byte)
system.membus.pktSize_system.generators13.port::system.mem_ctrl0.port        23104                       # Cumulative packet size per connected requestor and responder (Byte)
system.membus.pktSize_system.generators13.port::system.mem_ctrl1.port        25280                       # Cumulative packet size per connected requestor and responder (Byte)
system.membus.pktSize_system.generators13.port::total        48384                       # Cumulative packet size per connected requestor and responder (Byte)
system.membus.pktSize_system.generators14.port::system.mem_ctrl0.port        22976                       # Cumulative packet size per connected requestor and responder (Byte)
system.membus.pktSize_system.generators14.port::system.mem_ctrl1.port        21632                       # Cumulative packet size per connected requestor and responder (Byte)
system.membus.pktSize_system.generators14.port::total        44608                       # Cumulative packet size per connected requestor and responder (Byte)
system.membus.pktSize_system.generators15.port::system.mem_ctrl0.port        23424                       # Cumulative packet size per connected requestor and responder (Byte)
system.membus.pktSize_system.generators15.port::system.mem_ctrl1.port        23040                       # Cumulative packet size per connected requestor and responder (Byte)
system.membus.pktSize_system.generators15.port::total        46464                       # Cumulative packet size per connected requestor and responder (Byte)
system.membus.pktSize::total                   742208                       # Cumulative packet size per connected requestor and responder (Byte)
system.membus.power_state.pwrStateResidencyTicks::UNDEFINED    100122500                       # Cumulative time (in ticks) in various power states (Tick)
system.membus.reqLayer0.occupancy             3224231                       # Layer occupancy (ticks) (Tick)
system.membus.reqLayer0.utilization               0.0                       # Layer utilization (Ratio)
system.membus.reqLayer1.occupancy             2275229                       # Layer occupancy (ticks) (Tick)
system.membus.reqLayer1.utilization               0.0                       # Layer utilization (Ratio)
system.membus.respLayer0.occupancy             225710                       # Layer occupancy (ticks) (Tick)
system.membus.respLayer0.utilization              0.0                       # Layer utilization (Ratio)
system.membus.respLayer1.occupancy             238970                       # Layer occupancy (ticks) (Tick)
system.membus.respLayer1.utilization              0.0                       # Layer utilization (Ratio)
system.membus.respLayer10.occupancy            246378                       # Layer occupancy (ticks) (Tick)
system.membus.respLayer10.utilization             0.0                       # Layer utilization (Ratio)
system.membus.respLayer11.occupancy            251918                       # Layer occupancy (ticks) (Tick)
system.membus.respLayer11.utilization             0.0                       # Layer utilization (Ratio)
system.membus.respLayer12.occupancy            253093                       # Layer occupancy (ticks) (Tick)
system.membus.respLayer12.utilization             0.0                       # Layer utilization (Ratio)
system.membus.respLayer13.occupancy            262380                       # Layer occupancy (ticks) (Tick)
system.membus.respLayer13.utilization             0.0                       # Layer utilization (Ratio)
system.membus.respLayer14.occupancy            240271                       # Layer occupancy (ticks) (Tick)
system.membus.respLayer14.utilization             0.0                       # Layer utilization (Ratio)
system.membus.respLayer15.occupancy            240914                       # Layer occupancy (ticks) (Tick)
system.membus.respLayer15.utilization             0.0                       # Layer utilization (Ratio)
system.membus.respLayer2.occupancy             233707                       # Layer occupancy (ticks) (Tick)
system.membus.respLayer2.utilization              0.0                       # Layer utilization (Ratio)
system.membus.respLayer3.occupancy             251738                       # Layer occupancy (ticks) (Tick)
system.membus.respLayer3.utilization              0.0                       # Layer utilization (Ratio)
system.membus.respLayer4.occupancy             240419                       # Layer occupancy (ticks) (Tick)
system.membus.respLayer4.utilization              0.0                       # Layer utilization (Ratio)
system.membus.respLayer5.occupancy             251736                       # Layer occupancy (ticks) (Tick)
system.membus.respLayer5.utilization              0.0                       # Layer utilization (Ratio)
system.membus.respLayer6.occupancy             234703                       # Layer occupancy (ticks) (Tick)
system.membus.respLayer6.utilization              0.0                       # Layer utilization (Ratio)
system.membus.respLayer7.occupancy             255778                       # Layer occupancy (ticks) (Tick)
system.membus.respLayer7.utilization              0.0                       # Layer utilization (Ratio)
system.membus.respLayer8.occupancy             222258                       # Layer occupancy (ticks) (Tick)
system.membus.respLayer8.utilization              0.0                       # Layer utilization (Ratio)
system.membus.respLayer9.occupancy             248528                       # Layer occupancy (ticks) (Tick)
system.membus.respLayer9.utilization              0.0                       # Layer utilization (Ratio)
system.workload.inst.arm                            0                       # number of arm instructions executed (Count)
system.workload.inst.quiesce                        0                       # number of quiesce instructions executed (Count)

---------- End Simulation Statistics   ----------
